/*---------------------------------------------------------------------------*\
| =========                 |                                                 |
| \\      /  F ield         | foam-extend: Open Source CFD                    |
|  \\    /   O peration     | Version:     4.1                                |
|   \\  /    A nd           | Web:         http://www.foam-extend.org         |
|    \\/     M anipulation  | For copyright notice see file Copyright         |
\*---------------------------------------------------------------------------*/
Build  : 4.1-70b064d0f326
Exec   : solids4Foam
Date   : Jan 27 2023
Time   : 14:37:41
Host   : "Levie-Laptop"
PID    : 14939
CtrlDict : "/home/scottlevie/foam/scottlevie-4.1/solids4foam/tutorials/solidsML/plateHoleML/coordinate_trial/mesh10/plateHole_ML/system/controlDict"
Case   : /home/scottlevie/foam/scottlevie-4.1/solids4foam/tutorials/solidsML/plateHoleML/coordinate_trial/mesh10/plateHole_ML
nProcs : 1
sigFpe : Enabling floating point exception trapping (FOAM_SIGFPE).
allowSystemOperations : Disallowing user-supplied system call operations

// * * * * * * * * * * * * * * * * * * * * * * * * * * * * * * * * * * * * * //
Create time

/*---------------------------------------------------------------------------*\
|    For further information on the solids4Foam toolbox implementations,      |
|    please see the following publications:                                   |
|                                                                             |
|    P. Cardiff, A Karac, P. De Jaeger, H. Jasak, J. Nagy, A. Ivankovic,      |
|    Z. Tukovic: An open-source finite volume toolbox for solid mechanics and |
|    fluid-solid interaction simulations. arXiv:1808.10736v2, 2018, available |
|    at https://arxiv.org/abs/1808.10736.                                     |
|                                                                             |
|    Z. Tukovic, A. Karac, P. Cardiff, H. Jasak, A. Ivankovic: OpenFOAM       |
|    finite volume solver for fluid-solid interaction.  Transactions of       |
|    Famena, 42 (3), pp. 1-31, 2018, 10.21278/TOF.42301.                      |
\*---------------------------------------------------------------------------*/

Selecting physicsModel solidModel
Selecting solidModel linearGeometryTotalDisplacementML
Selecting dynamicFvMesh staticFvMesh
Symmetry boundary condition with non-orthogonal correction
Creating solidTraction boundary condition
    traction is time-varying
Symmetry boundary condition with non-orthogonal correction
Creating solidTraction boundary condition
Creating solidTraction boundary condition
    under-relaxation method: fixed
Creating residual.dat
Creating iterationTime.dat
Creating the mechanicalModel
Selecting mechanical law linearElastic
Creating BCloopCorr.dat
Creating forceDisp1 function object.
Creating pointDisp function object
    region = region0
    distance from specified point is 0
Time = 1

Evolving solid solver
Solving the momentum equation for D
setCellDisplacements: reading cellDisplacements
    Corr, res, relRes, matRes, iters

Using machine learning to predict D field

Json file location is: "../../machine_learning/ML_model/fdeep_model.json"
Loading json ... done. elapsed time: 0.001426 s
Building model ... done. elapsed time: 0.001628 s
Running test 1 of 1 ... done. elapsed time: 0.000172 s
Loading, constructing, testing of ../../machine_learning/ML_model/fdeep_model.json took 0.003501 s overall.
Keras model loaded
inputFoam

21
(
(1.71487e-07 0 0)
(2.48479e-07 -1.71494e-08 0)
(2.97227e-07 -3.15285e-08 0)
(3.30635e-07 -4.49492e-08 0)
(3.54858e-07 -5.85679e-08 0)
(3.73406e-07 -7.10214e-08 0)
(3.88163e-07 -8.24778e-08 0)
(4.00354e-07 -9.30562e-08 0)
(4.10733e-07 -1.02808e-07 0)
(4.19777e-07 -1.11788e-07 0)
(4.27797e-07 -1.20056e-07 0)
(4.35001e-07 -1.27674e-07 0)
(4.41533e-07 -1.347e-07 0)
(4.47499e-07 -1.41188e-07 0)
(4.52975e-07 -1.4723e-07 0)
(4.58018e-07 -1.52811e-07 0)
(4.62693e-07 -1.57976e-07 0)
(4.6703e-07 -1.6276e-07 0)
(4.71058e-07 -1.67204e-07 0)
(4.74802e-07 -1.71333e-07 0)
(0.356364 0.385513 0.25)
)


scaledInput
-0.838064 0 0 
-0.736437 1.22071 0 
-0.685999 1.16815 0 
-0.647778 1.11059 0 
-0.615513 1.04065 0 
-0.585709 0.973264 0 
-0.558678 0.90767 0 
-0.533869 0.844686 0 
-0.511078 0.78508 0 
-0.490154 0.729355 0 
-0.470958 0.677735 0 
-0.453355 0.630229 0 
-0.437211 0.5867 0 
-0.422398 0.546923 0 
-0.408796 0.510018 0 
-0.396208 0.476675 0 
-0.384545 0.446369 0 
-0.373876 0.418736 0 
-0.364059 0.393573 0 
-0.355011 0.370511 0 
-1.13095 -1.07969 -5.55112e-17 

scaledResult
-0.22348
0.068657
0.00249484

result
5.32689e-07
-2.35216e-07
0.00249484
inputFoam

21
(
(1.73031e-07 0 0)
(2.47285e-07 -1.90612e-08 0)
(2.93335e-07 -3.39545e-08 0)
(3.24293e-07 -4.70441e-08 0)
(3.46333e-07 -5.98473e-08 0)
(3.62872e-07 -7.13092e-08 0)
(3.75852e-07 -8.16827e-08 0)
(3.86461e-07 -9.1166e-08 0)
(3.9543e-07 -9.98561e-08 0)
(4.03209e-07 -1.07831e-07 0)
(4.10091e-07 -1.15162e-07 0)
(4.16268e-07 -1.21913e-07 0)
(4.21872e-07 -1.28139e-07 0)
(4.26994e-07 -1.33892e-07 0)
(4.31703e-07 -1.39254e-07 0)
(4.36047e-07 -1.44212e-07 0)
(4.401e-07 -1.48804e-07 0)
(4.43865e-07 -1.53064e-07 0)
(4.47365e-07 -1.57026e-07 0)
(4.50622e-07 -1.60713e-07 0)
(0.390255 0.422175 0.25)
)


scaledInput
-0.827881 0 0 
-0.742385 1.17858 0 
-0.702784 1.13502 0 
-0.672976 1.08752 0 
-0.647723 1.02811 0 
-0.624227 0.970638 0 
-0.602683 0.914588 0 
-0.582699 0.860576 0 
-0.564172 0.809239 0 
-0.54703 0.761029 0 
-0.531196 0.716169 0 
-0.516587 0.674704 0 
-0.503114 0.636551 0 
-0.490687 0.601546 0 
-0.47922 0.568932 0 
-0.46855 0.539368 0 
-0.458557 0.512407 0 
-0.449397 0.487731 0 
-0.440949 0.465186 0 
-0.433142 0.444455 0 
-1.07135 -1.01522 0 

scaledResult
-0.312186
0.163691
-0.000667803

result
5.03123e-07
-2.18782e-07
-0.000667803
inputFoam

21
(
(1.75744e-07 0 0)
(2.48531e-07 -2.14002e-08 0)
(2.92885e-07 -3.72958e-08 0)
(3.22224e-07 -5.05052e-08 0)
(3.42778e-07 -6.29094e-08 0)
(3.57983e-07 -7.36998e-08 0)
(3.6974e-07 -8.32762e-08 0)
(3.79235e-07 -9.19227e-08 0)
(3.87187e-07 -9.97842e-08 0)
(3.94041e-07 -1.06965e-07 0)
(4.00081e-07 -1.1355e-07 0)
(4.0549e-07 -1.19606e-07 0)
(4.10394e-07 -1.25192e-07 0)
(4.14878e-07 -1.30355e-07 0)
(4.19004e-07 -1.35169e-07 0)
(4.22814e-07 -1.39627e-07 0)
(4.2637e-07 -1.43762e-07 0)
(4.29683e-07 -1.47605e-07 0)
(4.32771e-07 -1.51186e-07 0)
(4.35652e-07 -1.54526e-07 0)
(0.424149 0.458842 0.25)
)


scaledInput
-0.809993 0 0 
-0.736178 1.12703 0 
-0.704724 1.08938 0 
-0.6812 1.0494 0 
-0.661154 0.998075 0 
-0.642107 0.948823 0 
-0.624527 0.900724 0 
-0.6081 0.854215 0 
-0.592771 0.809828 0 
-0.578504 0.767962 0 
-0.565255 0.728834 0 
-0.55297 0.692511 0 
-0.541586 0.658948 0 
-0.531039 0.628026 0 
-0.521263 0.599105 0 
-0.51212 0.572794 0 
-0.503535 0.548709 0 
-0.495631 0.526577 0 
-0.48831 0.50628 0 
-0.481516 0.487534 0 
-1.01175 -0.950751 0 

scaledResult
-0.368395
0.233787
-0.000429279

result
4.8439e-07
-2.06661e-07
-0.000429279
inputFoam

21
(
(1.79404e-07 0 0)
(2.51595e-07 -2.39826e-08 0)
(2.95007e-07 -4.11847e-08 0)
(3.23328e-07 -5.48575e-08 0)
(3.4289e-07 -6.7178e-08 0)
(3.57149e-07 -7.7595e-08 0)
(3.6803e-07 -8.66664e-08 0)
(3.76717e-07 -9.47542e-08 0)
(3.8393e-07 -1.02047e-07 0)
(3.90108e-07 -1.08675e-07 0)
(3.95532e-07 -1.14735e-07 0)
(4.0038e-07 -1.20301e-07 0)
(4.04773e-07 -1.25432e-07 0)
(4.08791e-07 -1.30178e-07 0)
(4.12493e-07 -1.34597e-07 0)
(4.15916e-07 -1.38697e-07 0)
(4.19112e-07 -1.42507e-07 0)
(4.22098e-07 -1.46053e-07 0)
(4.24888e-07 -1.49363e-07 0)
(4.27498e-07 -1.52454e-07 0)
(0.458046 0.495512 0.25)
)


scaledInput
-0.785858 0 0 
-0.720913 1.07012 0 
-0.695571 1.03627 0 
-0.676811 1.00147 0 
-0.660729 0.956211 0 
-0.645155 0.913278 0 
-0.63064 0.871227 0 
-0.616948 0.830411 0 
-0.604071 0.791304 0 
-0.592005 0.754273 0 
-0.580732 0.719528 0 
-0.57022 0.68715 0 
-0.560428 0.657119 0 
-0.551309 0.629353 0 
-0.542816 0.603333 0 
-0.534831 0.579573 0 
-0.527311 0.557747 0 
-0.520358 0.537623 0 
-0.513889 0.519111 0 
-0.507861 0.501959 0 
-0.95215 -0.886271 5.55112e-17 

scaledResult
-0.404481
0.266976
-0.000494505

result
4.72362e-07
-2.00922e-07
-0.000494505
inputFoam

21
(
(1.83848e-07 0 0)
(2.56033e-07 -2.67958e-08 0)
(2.99014e-07 -4.55367e-08 0)
(3.26734e-07 -5.98831e-08 0)
(3.45654e-07 -7.23311e-08 0)
(3.59262e-07 -8.2568e-08 0)
(3.69518e-07 -9.13116e-08 0)
(3.77618e-07 -9.90005e-08 0)
(3.84286e-07 -1.05868e-07 0)
(3.89964e-07 -1.1207e-07 0)
(3.94929e-07 -1.17719e-07 0)
(3.99358e-07 -1.22898e-07 0)
(4.03369e-07 -1.27668e-07 0)
(4.07039e-07 -1.32079e-07 0)
(4.10425e-07 -1.3618e-07 0)
(4.13557e-07 -1.39993e-07 0)
(4.16489e-07 -1.43542e-07 0)
(4.19234e-07 -1.46851e-07 0)
(4.21803e-07 -1.49944e-07 0)
(4.24211e-07 -1.52835e-07 0)
(0.491946 0.532184 0.25)
)


scaledInput
-0.756549 0 0 
-0.698802 1.00813 0 
-0.678289 0.976832 0 
-0.663279 0.946118 0 
-0.650287 0.905674 0 
-0.637429 0.867899 0 
-0.625322 0.83081 0 
-0.613783 0.794715 0 
-0.602836 0.760032 0 
-0.592502 0.727092 0 
-0.582784 0.696088 0 
-0.57367 0.667103 0 
-0.565133 0.640135 0 
-0.557143 0.615121 0 
-0.549665 0.591642 0 
-0.542599 0.570125 0 
-0.535903 0.550292 0 
-0.529695 0.531946 0 
-0.523902 0.515019 0 
-0.518483 0.499307 0 
-0.892541 -0.821787 -8.32667e-17 

scaledResult
-0.425233
0.277887
-0.00201495

result
4.65446e-07
-1.99035e-07
-0.00201495
inputFoam

21
(
(1.88944e-07 0 0)
(2.61564e-07 -2.98036e-08 0)
(3.04486e-07 -5.02393e-08 0)
(3.31907e-07 -6.54028e-08 0)
(3.50438e-07 -7.81006e-08 0)
(3.63625e-07 -8.83009e-08 0)
(3.73442e-07 -9.68497e-08 0)
(3.81111e-07 -1.0426e-07 0)
(3.87369e-07 -1.10811e-07 0)
(3.92663e-07 -1.16686e-07 0)
(3.97272e-07 -1.22014e-07 0)
(4.01375e-07 -1.26887e-07 0)
(4.05086e-07 -1.3137e-07 0)
(4.08482e-07 -1.35515e-07 0)
(4.11617e-07 -1.39359e-07 0)
(4.14518e-07 -1.42941e-07 0)
(4.17233e-07 -1.4628e-07 0)
(4.1978e-07 -1.49398e-07 0)
(4.2217e-07 -1.52319e-07 0)
(4.24416e-07 -1.55053e-07 0)
(0.525847 0.568858 0.25)
)


scaledInput
-0.722946 0 0 
-0.67125 0.941842 0 
-0.654693 0.912605 0 
-0.642724 0.885328 0 
-0.632214 0.84909 0 
-0.621474 0.815584 0 
-0.611296 0.782626 0 
-0.601505 0.7505 0 
-0.592139 0.719575 0 
-0.583235 0.690134 0 
-0.57481 0.662352 0 
-0.566863 0.636306 0 
-0.559379 0.612001 0 
-0.552339 0.589394 0 
-0.545719 0.56816 0 
-0.539434 0.548634 0 
-0.533468 0.530577 0 
-0.527916 0.513817 0 
-0.522712 0.498307 0 
-0.517822 0.483863 0 
-0.83293 -0.7573 -2.77556e-17 

scaledResult
-0.431357
0.277525
-0.00248451

result
4.63404e-07
-1.99098e-07
-0.00248451
inputFoam

21
(
(1.94566e-07 0 0)
(2.67909e-07 -3.29898e-08 0)
(3.11049e-07 -5.52332e-08 0)
(3.38399e-07 -7.13551e-08 0)
(3.56731e-07 -8.43997e-08 0)
(3.69653e-07 -9.4642e-08 0)
(3.79163e-07 -1.0307e-07 0)
(3.86516e-07 -1.1027e-07 0)
(3.92466e-07 -1.16568e-07 0)
(3.97467e-07 -1.22175e-07 0)
(4.01803e-07 -1.27236e-07 0)
(4.05653e-07 -1.31851e-07 0)
(4.09131e-07 -1.36093e-07 0)
(4.12314e-07 -1.40012e-07 0)
(4.15253e-07 -1.43641e-07 0)
(4.17974e-07 -1.47029e-07 0)
(4.20519e-07 -1.50191e-07 0)
(4.22914e-07 -1.53148e-07 0)
(4.25166e-07 -1.55922e-07 0)
(4.27287e-07 -1.58521e-07 0)
(0.55975 0.605534 0.25)
)


scaledInput
-0.685866 0 0 
-0.639643 0.871626 0 
-0.626389 0.844399 0 
-0.61693 0.819773 0 
-0.608437 0.787313 0 
-0.599433 0.75772 0 
-0.590847 0.728509 0 
-0.582506 0.699977 0 
-0.574455 0.672454 0 
-0.566742 0.646191 0 
-0.559395 0.621343 0 
-0.552422 0.597981 0 
-0.54582 0.576118 0 
-0.539578 0.555723 0 
-0.53368 0.53653 0 
-0.528056 0.518832 0 
-0.522701 0.502416 0 
-0.517698 0.487136 0 
-0.512989 0.472954 0 
-0.508545 0.45972 0 
-0.773316 -0.69281 5.55112e-17 

scaledResult
-0.425642
0.267595
-0.00157106

result
4.65309e-07
-2.00815e-07
-0.00157106
inputFoam

21
(
(2.0057e-07 0 0)
(2.74793e-07 -3.6444e-08 0)
(3.18345e-07 -6.0633e-08 0)
(3.45783e-07 -7.77854e-08 0)
(3.64043e-07 -9.12482e-08 0)
(3.76812e-07 -1.01598e-07 0)
(3.86111e-07 -1.09956e-07 0)
(3.93228e-07 -1.1699e-07 0)
(3.98937e-07 -1.23072e-07 0)
(4.03707e-07 -1.28443e-07 0)
(4.07826e-07 -1.33265e-07 0)
(4.11474e-07 -1.37649e-07 0)
(4.14767e-07 -1.4167e-07 0)
(4.17782e-07 -1.45384e-07 0)
(4.20568e-07 -1.48814e-07 0)
(4.23148e-07 -1.52022e-07 0)
(4.25556e-07 -1.55021e-07 0)
(4.2783e-07 -1.57827e-07 0)
(4.29975e-07 -1.60466e-07 0)
(4.32e-07 -1.62939e-07 0)
(0.593654 0.642212 0.25)
)


scaledInput
-0.646276 0 0 
-0.605349 0.795504 0 
-0.594924 0.770651 0 
-0.587592 0.748954 0 
-0.580813 0.720149 0 
-0.573251 0.694242 0 
-0.566014 0.66859 0 
-0.558917 0.643482 0 
-0.552002 0.619214 0 
-0.54532 0.596004 0 
-0.538905 0.573986 0 
-0.532773 0.553227 0 
-0.526928 0.53374 0 
-0.521368 0.515506 0 
-0.516084 0.498321 0 
-0.511021 0.482429 0 
-0.506202 0.467642 0 
-0.501671 0.453839 0 
-0.497383 0.440985 0 
-0.493314 0.428958 0 
-0.713699 -0.628317 0 

scaledResult
-0.414486
0.248069
-0.00110853

result
4.69028e-07
-2.04191e-07
-0.00110853
inputFoam

21
(
(2.06695e-07 0 0)
(2.81835e-07 -4.02388e-08 0)
(3.26029e-07 -6.64094e-08 0)
(3.53808e-07 -8.457e-08 0)
(3.72224e-07 -9.84061e-08 0)
(3.85007e-07 -1.08859e-07 0)
(3.9424e-07 -1.17149e-07 0)
(4.0124e-07 -1.24027e-07 0)
(4.06805e-07 -1.29912e-07 0)
(4.11418e-07 -1.35072e-07 0)
(4.15377e-07 -1.39683e-07 0)
(4.18867e-07 -1.43865e-07 0)
(4.2201e-07 -1.47696e-07 0)
(4.24881e-07 -1.51234e-07 0)
(4.27533e-07 -1.54498e-07 0)
(4.29985e-07 -1.57556e-07 0)
(4.32258e-07 -1.60419e-07 0)
(4.34413e-07 -1.63098e-07 0)
(4.36451e-07 -1.65622e-07 0)
(4.38381e-07 -1.67986e-07 0)
(0.62756 0.67889 0.25)
)


scaledInput
-0.605883 0 0 
-0.570269 0.711877 0 
-0.561786 0.691758 0 
-0.555704 0.674234 0 
-0.549904 0.64995 0 
-0.543285 0.627989 0 
-0.53696 0.60601 0 
-0.530754 0.584326 0 
-0.524703 0.563229 0 
-0.518849 0.542933 0 
-0.513215 0.523578 0 
-0.507815 0.50524 0 
-0.502652 0.487951 0 
-0.497724 0.471706 0 
-0.493026 0.456334 0 
-0.488507 0.442082 0 
-0.484246 0.428779 0 
-0.480212 0.416331 0 
-0.476366 0.404701 0 
-0.472695 0.393814 0 
-0.654081 -0.563823 5.55112e-17 

scaledResult
-0.398086
0.224926
-0.000281851

result
4.74494e-07
-2.08193e-07
-0.000281851
inputFoam

21
(
(2.12321e-07 0 0)
(2.8771e-07 -4.48279e-08 0)
(3.32341e-07 -7.31738e-08 0)
(3.60453e-07 -9.23401e-08 0)
(3.79126e-07 -1.0646e-07 0)
(3.92043e-07 -1.16884e-07 0)
(4.01372e-07 -1.24981e-07 0)
(4.08435e-07 -1.31599e-07 0)
(4.14037e-07 -1.37205e-07 0)
(4.18668e-07 -1.42094e-07 0)
(4.22632e-07 -1.46452e-07 0)
(4.2612e-07 -1.50402e-07 0)
(4.29254e-07 -1.54026e-07 0)
(4.32113e-07 -1.57378e-07 0)
(4.3475e-07 -1.60474e-07 0)
(4.37183e-07 -1.63383e-07 0)
(4.39432e-07 -1.66113e-07 0)
(4.41566e-07 -1.68672e-07 0)
(4.43586e-07 -1.71089e-07 0)
(4.45499e-07 -1.73354e-07 0)
(0.661466 0.715569 0.25)
)


scaledInput
-0.568781 0 0 
-0.541003 0.610743 0 
-0.534564 0.599372 0 
-0.529301 0.588659 0 
-0.523826 0.570966 0 
-0.517556 0.554757 0 
-0.511467 0.53787 0 
-0.505466 0.520676 0 
-0.499615 0.503533 0 
-0.493961 0.486715 0 
-0.48853 0.470417 0 
-0.483333 0.454771 0 
-0.478371 0.439854 0 
-0.47364 0.425704 0 
-0.469134 0.412192 0 
-0.464808 0.399598 0 
-0.460745 0.38778 0 
-0.456891 0.376669 0 
-0.453214 0.366231 0 
-0.449697 0.356443 0 
-0.594461 -0.499326 0 

scaledResult
-0.380518
0.203434
0.00112172

result
4.80349e-07
-2.1191e-07
0.00112172
inputFoam

21
(
(1.56284e-07 0 0)
(2.26388e-07 -1.89308e-08 0)
(2.70683e-07 -3.46952e-08 0)
(3.00898e-07 -4.93278e-08 0)
(3.22707e-07 -6.41579e-08 0)
(3.39295e-07 -7.77878e-08 0)
(3.52461e-07 -9.03328e-08 0)
(3.63318e-07 -1.01913e-07 0)
(3.72554e-07 -1.12582e-07 0)
(3.80597e-07 -1.224e-07 0)
(3.87729e-07 -1.31436e-07 0)
(3.94136e-07 -1.39756e-07 0)
(3.99949e-07 -1.47426e-07 0)
(4.05259e-07 -1.54505e-07 0)
(4.10137e-07 -1.61081e-07 0)
(4.14632e-07 -1.67159e-07 0)
(4.18801e-07 -1.72783e-07 0)
(4.22673e-07 -1.77992e-07 0)
(4.26274e-07 -1.8283e-07 0)
(4.29625e-07 -1.87334e-07 0)
(0.325019 0.412285 0.25)
)


scaledInput
-0.938321 0 0 
-0.846484 1.18145 0 
-0.800472 1.1249 0 
-0.765935 1.06237 0 
-0.736981 0.98583 0 
-0.710444 0.911519 0 
-0.686288 0.839327 0 
-0.664043 0.77023 0 
-0.64354 0.705077 0 
-0.624656 0.644384 0 
-0.60728 0.588354 0 
-0.591298 0.536955 0 
-0.576598 0.490002 0 
-0.563073 0.447218 0 
-0.550618 0.407705 0 
-0.539058 0.372074 0 
-0.528331 0.339755 0 
-0.518483 0.310346 0 
-0.509393 0.283616 0 
-0.50099 0.259101 0 
-1.18606 -1.03262 0 

scaledResult
-0.371007
-0.0512583
-0.00234079

result
4.83519e-07
-2.55952e-07
-0.00234079
inputFoam

21
(
(1.57641e-07 0 0)
(2.24874e-07 -2.14312e-08 0)
(2.66314e-07 -3.81923e-08 0)
(2.93933e-07 -5.29313e-08 0)
(3.1343e-07 -6.73137e-08 0)
(3.27938e-07 -8.02173e-08 0)
(3.39261e-07 -9.1906e-08 0)
(3.48477e-07 -1.02589e-07 0)
(3.56244e-07 -1.12372e-07 0)
(3.62968e-07 -1.21345e-07 0)
(3.6891e-07 -1.29588e-07 0)
(3.74241e-07 -1.37172e-07 0)
(3.79077e-07 -1.44163e-07 0)
(3.835e-07 -1.50617e-07 0)
(3.87568e-07 -1.56618e-07 0)
(3.91325e-07 -1.62168e-07 0)
(3.94831e-07 -1.67306e-07 0)
(3.9809e-07 -1.72071e-07 0)
(4.01124e-07 -1.76501e-07 0)
(4.03951e-07 -1.80624e-07 0)
(0.355928 0.451493 0.25)
)


scaledInput
-0.929375 0 0 
-0.854024 1.12635 0 
-0.819312 1.07714 0 
-0.793611 1.02268 0 
-0.772031 0.954881 0 
-0.751973 0.889349 0 
-0.733467 0.825639 0 
-0.716207 0.764549 0 
-0.700126 0.706793 0 
-0.685178 0.652833 0 
-0.671308 0.602871 0 
-0.658457 0.556905 0 
-0.646558 0.514797 0 
-0.63554 0.476323 0 
-0.625335 0.440671 0 
-0.615801 0.40846 0 
-0.606855 0.379186 0 
-0.598626 0.352481 0 
-0.59101 0.328155 0 
-0.583948 0.305821 0 
-1.13171 -0.963673 5.55112e-17 

scaledResult
-0.4746
0.0173052
0.000939993

result
4.48992e-07
-2.44096e-07
0.000939993
inputFoam

21
(
(1.60017e-07 0 0)
(2.25673e-07 -2.42892e-08 0)
(2.65272e-07 -4.24267e-08 0)
(2.91165e-07 -5.75448e-08 0)
(3.09106e-07 -7.17413e-08 0)
(3.22274e-07 -8.41228e-08 0)
(3.32361e-07 -9.51363e-08 0)
(3.40444e-07 -1.05088e-07 0)
(3.47177e-07 -1.14138e-07 0)
(3.52958e-07 -1.22402e-07 0)
(3.5804e-07 -1.29977e-07 0)
(3.62586e-07 -1.36939e-07 0)
(3.66706e-07 -1.43356e-07 0)
(3.70474e-07 -1.49283e-07 0)
(3.73944e-07 -1.54798e-07 0)
(3.77151e-07 -1.59906e-07 0)
(3.80146e-07 -1.6464e-07 0)
(3.82937e-07 -1.69035e-07 0)
(3.85541e-07 -1.73128e-07 0)
(3.87975e-07 -1.7694e-07 0)
(0.386841 0.490706 0.25)
)


scaledInput
-0.913706 0 0 
-0.850048 1.06337 0 
-0.823807 1.01931 0 
-0.804606 0.97187 0 
-0.788368 0.911457 0 
-0.772684 0.85371 0 
-0.75813 0.797534 0 
-0.744442 0.743538 0 
-0.731584 0.692344 0 
-0.719541 0.644371 0 
-0.708291 0.599817 0 
-0.697798 0.558704 0 
-0.688023 0.52093 0 
-0.678918 0.486317 0 
-0.670439 0.454112 0 
-0.662467 0.424952 0 
-0.654961 0.398385 0 
-0.648028 0.374083 0 
-0.641579 0.35189 0 
-0.635571 0.33147 0 
-1.07736 -0.894722 -5.55112e-17 

scaledResult
-0.538793
0.0629615
0.00201071

result
4.27597e-07
-2.36201e-07
0.00201071
inputFoam

21
(
(1.63202e-07 0 0)
(2.28199e-07 -2.72796e-08 0)
(2.66785e-07 -4.69949e-08 0)
(2.91622e-07 -6.27693e-08 0)
(3.08549e-07 -7.70141e-08 0)
(3.20772e-07 -8.91324e-08 0)
(3.29975e-07 -9.97263e-08 0)
(3.37242e-07 -1.09188e-07 0)
(3.43225e-07 -1.17726e-07 0)
(3.48321e-07 -1.25487e-07 0)
(3.52778e-07 -1.32581e-07 0)
(3.56755e-07 -1.39093e-07 0)
(3.60356e-07 -1.45093e-07 0)
(3.63651e-07 -1.50636e-07 0)
(3.66689e-07 -1.55787e-07 0)
(3.69502e-07 -1.60565e-07 0)
(3.72119e-07 -1.65002e-07 0)
(3.74571e-07 -1.69126e-07 0)
(3.76868e-07 -1.72972e-07 0)
(3.79023e-07 -1.76562e-07 0)
(0.417757 0.529922 0.25)
)


scaledInput
-0.892702 0 0 
-0.837461 0.997465 0 
-0.817279 0.956916 0 
-0.802792 0.914331 0 
-0.790472 0.859746 0 
-0.778176 0.807997 0 
-0.766657 0.757597 0 
-0.755697 0.709072 0 
-0.745294 0.662969 0 
-0.735459 0.61967 0 
-0.726192 0.579361 0 
-0.717482 0.542074 0 
-0.709307 0.507731 0 
-0.701642 0.476185 0 
-0.694457 0.446811 0 
-0.687655 0.420142 0 
-0.681257 0.395778 0 
-0.675303 0.373436 0 
-0.669726 0.352986 0 
-0.664495 0.334106 0 
-1.02299 -0.825764 -2.77556e-17 

scaledResult
-0.573943
0.083931
-0.0013462

result
4.15882e-07
-2.32575e-07
-0.0013462
inputFoam

21
(
(1.67025e-07 0 0)
(2.31943e-07 -3.04105e-08 0)
(2.70087e-07 -5.18566e-08 0)
(2.94323e-07 -6.84582e-08 0)
(3.10617e-07 -8.29264e-08 0)
(3.22152e-07 -9.49345e-08 0)
(3.30711e-07 -1.05254e-07 0)
(3.37383e-07 -1.14358e-07 0)
(3.4282e-07 -1.22503e-07 0)
(3.47418e-07 -1.29865e-07 0)
(3.51422e-07 -1.3657e-07 0)
(3.54986e-07 -1.42715e-07 0)
(3.58212e-07 -1.48371e-07 0)
(3.61166e-07 -1.53596e-07 0)
(3.63894e-07 -1.58445e-07 0)
(3.66422e-07 -1.62952e-07 0)
(3.68789e-07 -1.67142e-07 0)
(3.71009e-07 -1.71041e-07 0)
(3.73095e-07 -1.74683e-07 0)
(3.75055e-07 -1.78083e-07 0)
(0.448675 0.569141 0.25)
)


scaledInput
-0.867493 0 0 
-0.818812 0.928468 0 
-0.803041 0.890517 0 
-0.792058 0.851677 0 
-0.78266 0.801763 0 
-0.773132 0.755051 0 
-0.764028 0.709502 0 
-0.755203 0.665612 0 
-0.746699 0.623874 0 
-0.738558 0.584624 0 
-0.730807 0.548028 0 
-0.723453 0.514116 0 
-0.716493 0.482823 0 
-0.709918 0.454022 0 
-0.70371 0.427174 0 
-0.697793 0.402742 0 
-0.692167 0.380371 0 
-0.686912 0.35981 0 
-0.681971 0.340948 0 
-0.677319 0.323511 0 
-0.968629 -0.756803 0 

scaledResult
-0.593856
0.08842
-0.00263137

result
4.09245e-07
-2.31798e-07
-0.00263137
inputFoam

21
(
(1.71325e-07 0 0)
(2.36566e-07 -3.37194e-08 0)
(2.74619e-07 -5.70258e-08 0)
(2.98547e-07 -7.45323e-08 0)
(3.14457e-07 -8.93187e-08 0)
(3.25581e-07 -1.01322e-07 0)
(3.33725e-07 -1.11467e-07 0)
(3.39994e-07 -1.20306e-07 0)
(3.4505e-07 -1.28145e-07 0)
(3.49293e-07 -1.3519e-07 0)
(3.52968e-07 -1.41583e-07 0)
(3.5623e-07 -1.4743e-07 0)
(3.59178e-07 -1.52808e-07 0)
(3.61878e-07 -1.57776e-07 0)
(3.64374e-07 -1.6238e-07 0)
(3.66687e-07 -1.66666e-07 0)
(3.6886e-07 -1.70656e-07 0)
(3.70901e-07 -1.74373e-07 0)
(3.72821e-07 -1.7785e-07 0)
(3.7463e-07 -1.811e-07 0)
(0.479594 0.608362 0.25)
)


scaledInput
-0.839133 0 0 
-0.79578 0.855548 0 
-0.783497 0.819917 0 
-0.775277 0.784782 0 
-0.768151 0.739072 0 
-0.76059 0.696761 0 
-0.753255 0.655447 0 
-0.746025 0.615607 0 
-0.738961 0.577689 0 
-0.732121 0.541989 0 
-0.725545 0.508654 0 
-0.719254 0.477712 0 
-0.713254 0.449107 0 
-0.707546 0.422729 0 
-0.702123 0.398107 0 
-0.696922 0.375662 0 
-0.691934 0.35507 0 
-0.687265 0.336098 0 
-0.682858 0.318657 0 
-0.678691 0.302506 0 
-0.91426 -0.687837 5.55112e-17 

scaledResult
-0.602083
0.0816055
-0.00288418

result
4.06503e-07
-2.32977e-07
-0.00288418
inputFoam

21
(
(1.75939e-07 0 0)
(2.41794e-07 -3.71679e-08 0)
(2.80031e-07 -6.24058e-08 0)
(3.03894e-07 -8.09303e-08 0)
(3.19636e-07 -9.60968e-08 0)
(3.30542e-07 -1.08154e-07 0)
(3.3843e-07 -1.18179e-07 0)
(3.44434e-07 -1.26807e-07 0)
(3.49229e-07 -1.34391e-07 0)
(3.53221e-07 -1.41165e-07 0)
(3.56659e-07 -1.47292e-07 0)
(3.59701e-07 -1.52883e-07 0)
(3.62445e-07 -1.58021e-07 0)
(3.64957e-07 -1.62767e-07 0)
(3.67279e-07 -1.67164e-07 0)
(3.69431e-07 -1.71263e-07 0)
(3.71451e-07 -1.75082e-07 0)
(3.73355e-07 -1.78644e-07 0)
(3.75149e-07 -1.8198e-07 0)
(3.76844e-07 -1.85098e-07 0)
(0.510515 0.647585 0.25)
)


scaledInput
-0.808708 0 0 
-0.76974 0.779551 0 
-0.760157 0.746438 0 
-0.754029 0.714318 0 
-0.748583 0.672598 0 
-0.742449 0.634421 0 
-0.736437 0.597047 0 
-0.73042 0.560958 0 
-0.724465 0.526569 0 
-0.718639 0.494146 0 
-0.712987 0.463821 0 
-0.707537 0.435621 0 
-0.702304 0.4095 0 
-0.697293 0.385363 0 
-0.692505 0.362772 0 
-0.687888 0.342152 0 
-0.683445 0.323201 0 
-0.679266 0.305712 0 
-0.675303 0.289599 0 
-0.671537 0.274672 0 
-0.85989 -0.618868 -5.55112e-17 

scaledResult
-0.600599
0.0659467
-0.00141538

result
4.06997e-07
-2.35684e-07
-0.00141538
inputFoam

21
(
(1.8068e-07 0 0)
(2.4733e-07 -4.08084e-08 0)
(2.85958e-07 -6.8072e-08 0)
(3.09946e-07 -8.76645e-08 0)
(3.25684e-07 -1.03273e-07 0)
(3.36512e-07 -1.15453e-07 0)
(3.44263e-07 -1.25419e-07 0)
(3.50103e-07 -1.33888e-07 0)
(3.54725e-07 -1.41263e-07 0)
(3.58544e-07 -1.47809e-07 0)
(3.61817e-07 -1.53702e-07 0)
(3.64702e-07 -1.59067e-07 0)
(3.67299e-07 -1.63991e-07 0)
(3.69674e-07 -1.68537e-07 0)
(3.7187e-07 -1.72742e-07 0)
(3.73902e-07 -1.76667e-07 0)
(3.75803e-07 -1.80327e-07 0)
(3.77599e-07 -1.83743e-07 0)
(3.79298e-07 -1.86947e-07 0)
(3.80906e-07 -1.89944e-07 0)
(0.541437 0.686809 0.25)
)


scaledInput
-0.777438 0 0 
-0.742159 0.699323 0 
-0.734595 0.669051 0 
-0.729983 0.640153 0 
-0.725734 0.602221 0 
-0.720619 0.567815 0 
-0.715587 0.534058 0 
-0.710494 0.50143 0 
-0.705397 0.470317 0 
-0.700362 0.44096 0 
-0.695438 0.413473 0 
-0.690656 0.387879 0 
-0.686034 0.364137 0 
-0.681583 0.342163 0 
-0.677307 0.32157 0 
-0.673164 0.302756 0 
-0.669189 0.285434 0 
-0.665428 0.269426 0 
-0.661841 0.254647 0 
-0.658412 0.240932 0 
-0.805517 -0.549897 0 

scaledResult
-0.592458
0.0443936
0.00097816

result
4.0971e-07
-2.39411e-07
0.00097816
inputFoam

21
(
(1.85324e-07 0 0)
(2.52875e-07 -4.46191e-08 0)
(2.92126e-07 -7.39056e-08 0)
(3.16487e-07 -9.45324e-08 0)
(3.3244e-07 -1.10534e-07 0)
(3.43354e-07 -1.22827e-07 0)
(3.51109e-07 -1.32732e-07 0)
(3.56901e-07 -1.41052e-07 0)
(3.61446e-07 -1.48238e-07 0)
(3.65173e-07 -1.54579e-07 0)
(3.68345e-07 -1.6027e-07 0)
(3.71127e-07 -1.65441e-07 0)
(3.73622e-07 -1.70183e-07 0)
(3.75897e-07 -1.74561e-07 0)
(3.77996e-07 -1.7861e-07 0)
(3.79936e-07 -1.82393e-07 0)
(3.81737e-07 -1.85924e-07 0)
(3.83444e-07 -1.89222e-07 0)
(3.85061e-07 -1.9232e-07 0)
(3.86595e-07 -1.95217e-07 0)
(0.57236 0.726035 0.25)
)


scaledInput
-0.746818 0 0 
-0.714537 0.615346 0 
-0.707997 0.589378 0 
-0.703996 0.564515 0 
-0.700208 0.531007 0 
-0.695602 0.500527 0 
-0.691121 0.470427 0 
-0.686599 0.441201 0 
-0.682077 0.413229 0 
-0.677607 0.386751 0 
-0.673229 0.361887 0 
-0.668969 0.338674 0 
-0.664843 0.317086 0 
-0.660859 0.297057 0 
-0.657023 0.278226 0 
-0.653298 0.26101 0 
-0.649748 0.245132 0 
-0.646373 0.230437 0 
-0.643139 0.21684 0 
-0.640031 0.204215 0 
-0.751143 -0.480924 0 

scaledResult
-0.578386
0.0213076
0.00193912

result
4.14401e-07
-2.43404e-07
0.00193912
inputFoam

21
(
(1.8959e-07 0 0)
(2.57713e-07 -4.88117e-08 0)
(2.97522e-07 -8.03559e-08 0)
(3.22303e-07 -1.02147e-07 0)
(3.38573e-07 -1.18604e-07 0)
(3.49665e-07 -1.31007e-07 0)
(3.57536e-07 -1.40826e-07 0)
(3.63397e-07 -1.48964e-07 0)
(3.67979e-07 -1.55926e-07 0)
(3.71721e-07 -1.62031e-07 0)
(3.74894e-07 -1.67489e-07 0)
(3.77667e-07 -1.72439e-07 0)
(3.80147e-07 -1.76977e-07 0)
(3.82404e-07 -1.81167e-07 0)
(3.84483e-07 -1.85043e-07 0)
(3.86399e-07 -1.8867e-07 0)
(3.88176e-07 -1.9206e-07 0)
(3.89861e-07 -1.95227e-07 0)
(3.91456e-07 -1.98208e-07 0)
(3.92969e-07 -2.00992e-07 0)
(0.603284 0.765262 0.25)
)


scaledInput
-0.718683 0 0 
-0.690435 0.522949 0 
-0.684727 0.501282 0 
-0.680886 0.480657 0 
-0.677038 0.451868 0 
-0.672522 0.425882 0 
-0.668149 0.400003 0 
-0.663766 0.374689 0 
-0.659411 0.350305 0 
-0.655127 0.327094 0 
-0.650948 0.305189 0 
-0.646891 0.284647 0 
-0.64297 0.265464 0 
-0.639188 0.247599 0 
-0.63555 0.230704 0 
-0.63202 0.215243 0 
-0.628655 0.200957 0 
-0.625454 0.187708 0 
-0.622385 0.175412 0 
-0.619432 0.164002 0 
-0.696767 -0.411948 -5.55112e-17 

scaledResult
-0.56488
-0.00407524
0.000150225

result
4.18902e-07
-2.47793e-07
0.000150225
inputFoam

21
(
(1.40086e-07 0 0)
(2.02895e-07 -2.06368e-08 0)
(2.42412e-07 -3.76503e-08 0)
(2.69263e-07 -5.34245e-08 0)
(2.88573e-07 -6.94316e-08 0)
(3.03237e-07 -8.41591e-08 0)
(3.14838e-07 -9.77261e-08 0)
(3.24383e-07 -1.10249e-07 0)
(3.32492e-07 -1.21784e-07 0)
(3.3955e-07 -1.32397e-07 0)
(3.45808e-07 -1.4216e-07 0)
(3.5143e-07 -1.51148e-07 0)
(3.56532e-07 -1.59431e-07 0)
(3.61196e-07 -1.67074e-07 0)
(3.65481e-07 -1.74176e-07 0)
(3.69433e-07 -1.8074e-07 0)
(3.73097e-07 -1.8681e-07 0)
(3.76504e-07 -1.92431e-07 0)
(3.79674e-07 -1.97647e-07 0)
(3.82626e-07 -2.02496e-07 0)
(0.29167 0.436514 0.25)
)


scaledInput
-1.04514 0 0 
-0.963516 1.14386 0 
-0.92239 1.08454 0 
-0.891632 1.01725 0 
-0.865941 0.934109 0 
-0.842296 0.853379 0 
-0.820762 0.775001 0 
-0.800895 0.700152 0 
-0.782533 0.629757 0 
-0.765569 0.564353 0 
-0.749908 0.504125 0 
-0.735457 0.44901 0 
-0.722124 0.39878 0 
-0.70982 0.353112 0 
-0.698457 0.310976 0 
-0.68788 0.273062 0 
-0.678054 0.238752 0 
-0.669 0.207605 0 
-0.66062 0.179355 0 
-0.652854 0.153532 0 
-1.2447 -0.990011 -5.55112e-17 

scaledResult
-0.529429
-0.168594
-0.00247097

result
4.30718e-07
-2.76242e-07
-0.00247097
inputFoam

21
(
(1.41259e-07 0 0)
(2.01143e-07 -2.37769e-08 0)
(2.37785e-07 -4.23634e-08 0)
(2.61998e-07 -5.87029e-08 0)
(2.78959e-07 -7.46268e-08 0)
(2.91512e-07 -8.89389e-08 0)
(3.0125e-07 -1.01913e-07 0)
(3.09141e-07 -1.13768e-07 0)
(3.15769e-07 -1.24619e-07 0)
(3.21497e-07 -1.34566e-07 0)
(3.26554e-07 -1.43699e-07 0)
(3.31089e-07 -1.52099e-07 0)
(3.35204e-07 -1.59838e-07 0)
(3.38968e-07 -1.6698e-07 0)
(3.42433e-07 -1.73624e-07 0)
(3.45634e-07 -1.79767e-07 0)
(3.48624e-07 -1.8545e-07 0)
(3.51406e-07 -1.90715e-07 0)
(3.53998e-07 -1.95605e-07 0)
(3.56416e-07 -2.00147e-07 0)
(0.319408 0.478027 0.25)
)


scaledInput
-1.03741 0 0 
-0.972244 1.07466 0 
-0.942347 1.02017 0 
-0.920499 0.959115 0 
-0.902266 0.883159 0 
-0.885174 0.809762 0 
-0.869327 0.73857 0 
-0.854469 0.670574 0 
-0.840551 0.606556 0 
-0.827544 0.546985 0 
-0.815414 0.492038 0 
-0.80412 0.441671 0 
-0.793614 0.395692 0 
-0.783845 0.35382 0 
-0.77476 0.315054 0 
-0.76624 0.280155 0 
-0.758225 0.248549 0 
-0.750821 0.219817 0 
-0.743943 0.193726 0 
-0.737544 0.169891 0 
-1.19593 -0.917016 -5.55112e-17 

scaledResult
-0.633383
-0.131582
-0.000619747

result
3.9607e-07
-2.69841e-07
-0.000619747
inputFoam

21
(
(1.43299e-07 0 0)
(2.01547e-07 -2.70774e-08 0)
(2.36381e-07 -4.74102e-08 0)
(2.58893e-07 -6.44179e-08 0)
(2.74314e-07 -8.03957e-08 0)
(2.85478e-07 -9.43832e-08 0)
(2.93951e-07 -1.06853e-07 0)
(3.00691e-07 -1.18124e-07 0)
(3.06276e-07 -1.28371e-07 0)
(3.11055e-07 -1.37725e-07 0)
(3.15248e-07 -1.46293e-07 0)
(3.18997e-07 -1.54165e-07 0)
(3.22394e-07 -1.61414e-07 0)
(3.25504e-07 -1.68105e-07 0)
(3.28371e-07 -1.7433e-07 0)
(3.31025e-07 -1.80091e-07 0)
(3.33523e-07 -1.85426e-07 0)
(3.3585e-07 -1.90375e-07 0)
(3.38022e-07 -1.94978e-07 0)
(3.40052e-07 -1.99256e-07 0)
(0.347149 0.519545 0.25)
)


scaledInput
-1.02395 0 0 
-0.970234 1.00192 0 
-0.9484 0.951243 0 
-0.932837 0.896175 0 
-0.919812 0.826582 0 
-0.907239 0.760082 0 
-0.895418 0.695591 0 
-0.884167 0.63395 0 
-0.873488 0.575842 0 
-0.863393 0.521691 0 
-0.853881 0.471662 0 
-0.84494 0.425724 0 
-0.836551 0.383715 0 
-0.828686 0.345393 0 
-0.821314 0.309843 0 
-0.814342 0.277793 0 
-0.807694 0.248718 0 
-0.801534 0.222231 0 
-0.79579 0.198136 0 
-0.790421 0.176095 0 
-1.14715 -0.844012 -5.55112e-17 

scaledResult
-0.698956
-0.105954
-0.00154639

result
3.74215e-07
-2.6541e-07
-0.00154639
inputFoam

21
(
(1.46014e-07 0 0)
(2.03544e-07 -3.04409e-08 0)
(2.37326e-07 -5.26192e-08 0)
(2.58769e-07 -7.04513e-08 0)
(2.73186e-07 -8.66284e-08 0)
(2.83449e-07 -1.0047e-07 0)
(2.91071e-07 -1.12618e-07 0)
(2.9702e-07 -1.23483e-07 0)
(3.01875e-07 -1.33294e-07 0)
(3.05985e-07 -1.42213e-07 0)
(3.09567e-07 -1.50362e-07 0)
(3.12757e-07 -1.5784e-07 0)
(3.15645e-07 -1.64724e-07 0)
(3.1829e-07 -1.7108e-07 0)
(3.20732e-07 -1.76984e-07 0)
(3.22995e-07 -1.82459e-07 0)
(3.25122e-07 -1.87536e-07 0)
(3.27113e-07 -1.9225e-07 0)
(3.28979e-07 -1.9664e-07 0)
(3.30731e-07 -2.0073e-07 0)
(0.374892 0.561066 0.25)
)


scaledInput
-1.00605 0 0 
-0.960282 0.927798 0 
-0.944323 0.880101 0 
-0.933329 0.829727 0 
-0.924076 0.765456 0 
-0.914656 0.704535 0 
-0.905711 0.645434 0 
-0.897073 0.588897 0 
-0.888759 0.535545 0 
-0.880797 0.485763 0 
-0.87321 0.439706 0 
-0.866002 0.397353 0 
-0.859173 0.358562 0 
-0.852712 0.323119 0 
-0.846605 0.290232 0 
-0.840779 0.260529 0 
-0.835215 0.23353 0 
-0.83002 0.208892 0 
-0.825137 0.186443 0 
-0.820538 0.165827 0 
-1.09837 -0.771003 -2.77556e-17 

scaledResult
-0.735714
-0.101314
-0.00212452

result
3.61964e-07
-2.64608e-07
-0.00212452
inputFoam

21
(
(1.49237e-07 0 0)
(2.0663e-07 -3.38345e-08 0)
(2.39943e-07 -5.79109e-08 0)
(2.60792e-07 -7.67027e-08 0)
(2.74597e-07 -9.31973e-08 0)
(2.84228e-07 -1.07e-07 0)
(2.9125e-07 -1.18932e-07 0)
(2.9664e-07 -1.29492e-07 0)
(3.00979e-07 -1.38957e-07 0)
(3.04615e-07 -1.47521e-07 0)
(3.07764e-07 -1.55323e-07 0)
(3.10558e-07 -1.6247e-07 0)
(3.13085e-07 -1.69046e-07 0)
(3.154e-07 -1.75116e-07 0)
(3.1754e-07 -1.80753e-07 0)
(3.19526e-07 -1.85984e-07 0)
(3.21396e-07 -1.9084e-07 0)
(3.23153e-07 -1.95352e-07 0)
(3.24807e-07 -1.99558e-07 0)
(3.26366e-07 -2.03479e-07 0)
(0.402637 0.602589 0.25)
)


scaledInput
-0.984795 0 0 
-0.944912 0.853013 0 
-0.933039 0.807828 0 
-0.92529 0.760878 0 
-0.918744 0.701034 0 
-0.911807 0.644952 0 
-0.90507 0.590496 0 
-0.898408 0.538385 0 
-0.891867 0.489192 0 
-0.8855 0.443265 0 
-0.879344 0.400743 0 
-0.873425 0.361606 0 
-0.867755 0.325724 0 
-0.862338 0.292903 0 
-0.857172 0.262398 0 
-0.852201 0.234827 0 
-0.847422 0.209739 0 
-0.842929 0.18682 0 
-0.838676 0.165911 0 
-0.834645 0.146686 0 
-1.04958 -0.697988 -1.11022e-16 

scaledResult
-0.757197
-0.105768
-0.00230723

result
3.54804e-07
-2.65378e-07
-0.00230723
inputFoam

21
(
(1.52817e-07 0 0)
(2.10456e-07 -3.73019e-08 0)
(2.43673e-07 -6.33456e-08 0)
(2.6424e-07 -8.31531e-08 0)
(2.77699e-07 -1.00054e-07 0)
(2.86948e-07 -1.13892e-07 0)
(2.93589e-07 -1.25681e-07 0)
(2.98611e-07 -1.36007e-07 0)
(3.02603e-07 -1.45195e-07 0)
(3.05915e-07 -1.53469e-07 0)
(3.08761e-07 -1.60985e-07 0)
(3.11277e-07 -1.67859e-07 0)
(3.13546e-07 -1.74179e-07 0)
(3.15624e-07 -1.80013e-07 0)
(3.17546e-07 -1.85429e-07 0)
(3.19329e-07 -1.9046e-07 0)
(3.21015e-07 -1.95134e-07 0)
(3.22601e-07 -1.99481e-07 0)
(3.24097e-07 -2.03539e-07 0)
(3.2551e-07 -2.07323e-07 0)
(0.430384 0.644115 0.25)
)


scaledInput
-0.961186 0 0 
-0.925853 0.776599 0 
-0.916951 0.733602 0 
-0.911592 0.689838 0 
-0.907024 0.633786 0 
-0.901862 0.582061 0 
-0.896711 0.531775 0 
-0.891479 0.483617 0 
-0.886232 0.438132 0 
-0.881039 0.395643 0 
-0.87595 0.356274 0 
-0.870999 0.320007 0 
-0.866209 0.286721 0 
-0.861591 0.256241 0 
-0.857152 0.227855 0 
-0.85285 0.202192 0 
-0.84867 0.178819 0 
-0.844727 0.157436 0 
-0.840978 0.137901 0 
-0.837408 0.119925 0 
-1.00079 -0.624969 5.55112e-17 

scaledResult
-0.767149
-0.117854
-0.00237475

result
3.51487e-07
-2.67468e-07
-0.00237475
inputFoam

21
(
(1.56606e-07 0 0)
(2.1477e-07 -4.08351e-08 0)
(2.48166e-07 -6.88912e-08 0)
(2.68696e-07 -8.97704e-08 0)
(2.82029e-07 -1.07117e-07 0)
(2.91102e-07 -1.2105e-07 0)
(2.97535e-07 -1.32752e-07 0)
(3.02337e-07 -1.42894e-07 0)
(3.06108e-07 -1.5185e-07 0)
(3.09205e-07 -1.59874e-07 0)
(3.11847e-07 -1.67141e-07 0)
(3.14168e-07 -1.73776e-07 0)
(3.16255e-07 -1.79871e-07 0)
(3.18162e-07 -1.85497e-07 0)
(3.19926e-07 -1.90717e-07 0)
(3.2156e-07 -1.95572e-07 0)
(3.23103e-07 -2.00086e-07 0)
(3.24559e-07 -2.04288e-07 0)
(3.25935e-07 -2.08215e-07 0)
(3.27238e-07 -2.1188e-07 0)
(0.458132 0.685643 0.25)
)


scaledInput
-0.936199 0 0 
-0.904359 0.698735 0 
-0.897576 0.657863 0 
-0.893886 0.61696 0 
-0.890667 0.564523 0 
-0.886674 0.516738 0 
-0.882608 0.470251 0 
-0.878383 0.425722 0 
-0.87407 0.38366 0 
-0.869742 0.344357 0 
-0.865452 0.307921 0 
-0.86124 0.274329 0 
-0.857129 0.243471 0 
-0.853137 0.215182 0 
-0.849274 0.188792 0 
-0.845506 0.164925 0 
-0.841829 0.143165 0 
-0.838346 0.123233 0 
-0.835016 0.104995 0 
-0.831826 0.0881914 0 
-0.951999 -0.551947 -5.55112e-17 

scaledResult
-0.768068
-0.136036
-0.00254131

result
3.51181e-07
-2.70612e-07
-0.00254131
inputFoam

21
(
(1.60462e-07 0 0)
(2.19367e-07 -4.44214e-08 0)
(2.53165e-07 -7.45278e-08 0)
(2.73869e-07 -9.65137e-08 0)
(2.87256e-07 -1.14351e-07 0)
(2.96295e-07 -1.28453e-07 0)
(3.0264e-07 -1.40134e-07 0)
(3.07323e-07 -1.50151e-07 0)
(3.1096e-07 -1.58928e-07 0)
(3.13917e-07 -1.66749e-07 0)
(3.1642e-07 -1.73805e-07 0)
(3.18606e-07 -1.80233e-07 0)
(3.20564e-07 -1.86132e-07 0)
(3.22348e-07 -1.91573e-07 0)
(3.23996e-07 -1.9662e-07 0)
(3.2552e-07 -2.01316e-07 0)
(3.26945e-07 -2.05685e-07 0)
(3.28295e-07 -2.09753e-07 0)
(3.29575e-07 -2.13559e-07 0)
(3.30793e-07 -2.17112e-07 0)
(0.485881 0.727173 0.25)
)


scaledInput
-0.910769 0 0 
-0.881459 0.619703 0 
-0.876016 0.58088 0 
-0.873331 0.542694 0 
-0.870917 0.493572 0 
-0.867682 0.449187 0 
-0.864362 0.406023 0 
-0.860859 0.364713 0 
-0.857238 0.325726 0 
-0.853565 0.289319 0 
-0.849893 0.25558 0 
-0.846258 0.224476 0 
-0.842686 0.195897 0 
-0.839195 0.169687 0 
-0.835798 0.145191 0 
-0.832467 0.123048 0 
-0.829244 0.10285 0 
-0.826166 0.0843421 0 
-0.823201 0.06739 0 
-0.82034 0.051768 0 
-0.903205 -0.478923 5.55112e-17 

scaledResult
-0.760912
-0.159517
-0.00204987

result
3.53566e-07
-2.74672e-07
-0.00204987
inputFoam

21
(
(1.64255e-07 0 0)
(2.24043e-07 -4.79929e-08 0)
(2.58445e-07 -8.01206e-08 0)
(2.7953e-07 -1.03209e-07 0)
(2.93161e-07 -1.21516e-07 0)
(3.02328e-07 -1.35783e-07 0)
(3.08718e-07 -1.47449e-07 0)
(3.13392e-07 -1.57356e-07 0)
(3.16986e-07 -1.65977e-07 0)
(3.19879e-07 -1.73621e-07 0)
(3.22304e-07 -1.80498e-07 0)
(3.24405e-07 -1.86752e-07 0)
(3.26275e-07 -1.92487e-07 0)
(3.27972e-07 -1.97776e-07 0)
(3.29532e-07 -2.02682e-07 0)
(3.30969e-07 -2.0725e-07 0)
(3.32304e-07 -2.11502e-07 0)
(3.3357e-07 -2.15463e-07 0)
(3.34773e-07 -2.19172e-07 0)
(3.35918e-07 -2.22632e-07 0)
(0.513631 0.768704 0.25)
)


scaledInput
-0.885755 0 0 
-0.858164 0.540994 0 
-0.85325 0.504495 0 
-0.850836 0.468958 0 
-0.848607 0.423305 0 
-0.845622 0.3823 0 
-0.842637 0.342376 0 
-0.839527 0.304141 0 
-0.836331 0.268034 0 
-0.833101 0.234298 0 
-0.829875 0.203013 0 
-0.826682 0.174152 0 
-0.823542 0.147611 0 
-0.820468 0.123247 0 
-0.817471 0.10041 0 
-0.814524 0.0797836 0 
-0.811688 0.0609632 0 
-0.808967 0.0437135 0 
-0.806334 0.0278952 0 
-0.80378 0.0133281 0 
-0.85441 -0.405896 -5.55112e-17 

scaledResult
-0.748424
-0.185072
-0.00150511

result
3.57728e-07
-2.79091e-07
-0.00150511
inputFoam

21
(
(1.67878e-07 0 0)
(2.28399e-07 -5.173e-08 0)
(2.63372e-07 -8.60639e-08 0)
(2.84886e-07 -1.10388e-07 0)
(2.98843e-07 -1.29237e-07 0)
(3.08206e-07 -1.43692e-07 0)
(3.14724e-07 -1.5534e-07 0)
(3.19477e-07 -1.65121e-07 0)
(3.23115e-07 -1.73564e-07 0)
(3.26028e-07 -1.8101e-07 0)
(3.28456e-07 -1.87687e-07 0)
(3.30549e-07 -1.93749e-07 0)
(3.32401e-07 -1.99303e-07 0)
(3.34074e-07 -2.04426e-07 0)
(3.35607e-07 -2.09182e-07 0)
(3.37014e-07 -2.13613e-07 0)
(3.38313e-07 -2.1774e-07 0)
(3.39545e-07 -2.21586e-07 0)
(3.40713e-07 -2.25192e-07 0)
(3.41825e-07 -2.28549e-07 0)
(0.541382 0.810236 0.25)
)


scaledInput
-0.861864 0 0 
-0.836466 0.458638 0 
-0.832 0.423322 0 
-0.829557 0.389887 0 
-0.827143 0.347579 0 
-0.824128 0.310127 0 
-0.821169 0.273722 0 
-0.818138 0.238865 0 
-0.815065 0.205933 0 
-0.811989 0.175136 0 
-0.808942 0.146546 0 
-0.805944 0.120136 0 
-0.803009 0.0958155 0 
-0.800144 0.0734569 0 
-0.797358 0.0524029 0 
-0.794623 0.0333968 0 
-0.792003 0.0160492 0 
-0.789489 0.000142006 0 
-0.787055 -0.0144626 0 
-0.784691 -0.0278675 0 
-0.805614 -0.332867 -5.55112e-17 

scaledResult
-0.735429
-0.217107
-0.000207311

result
3.62059e-07
-2.84631e-07
-0.000207311
inputFoam

21
(
(1.23038e-07 0 0)
(1.78172e-07 -2.21936e-08 0)
(2.12769e-07 -4.03581e-08 0)
(2.3619e-07 -5.7163e-08 0)
(2.52975e-07 -7.42777e-08 0)
(2.65666e-07 -9.00189e-08 0)
(2.75672e-07 -1.04532e-07 0)
(2.83889e-07 -1.17931e-07 0)
(2.90863e-07 -1.30271e-07 0)
(2.96932e-07 -1.41622e-07 0)
(3.02313e-07 -1.52063e-07 0)
(3.0715e-07 -1.61673e-07 0)
(3.11542e-07 -1.70526e-07 0)
(3.15558e-07 -1.78693e-07 0)
(3.19252e-07 -1.86285e-07 0)
(3.22661e-07 -1.933e-07 0)
(3.25835e-07 -1.99784e-07 0)
(3.28787e-07 -2.05786e-07 0)
(3.31535e-07 -2.11353e-07 0)
(3.34094e-07 -2.16522e-07 0)
(0.256522 0.458053 0.25)
)


scaledInput
-1.15757 0 0 
-1.08668 1.10955 0 
-1.05023 1.04756 0 
-1.02304 0.976075 0 
-1.00043 0.886582 0 
-0.979685 0.799907 0 
-0.96075 0.715783 0 
-0.943224 0.635574 0 
-0.926962 0.560289 0 
-0.911875 0.490488 0 
-0.897889 0.426344 0 
-0.88493 0.367764 0 
-0.872928 0.31448 0 
-0.861808 0.266126 0 
-0.851503 0.221533 0 
-0.841881 0.181492 0 
-0.83288 0.145335 0 
-0.824561 0.112575 0 
-0.816842 0.0829139 0 
-0.809674 0.0558704 0 
-1.30651 -0.952138 5.55112e-17 

scaledResult
-0.698158
-0.276454
0.000411075

result
3.74481e-07
-2.94893e-07
0.000411075
inputFoam

21
(
(1.24027e-07 0 0)
(1.76342e-07 -2.59801e-08 0)
(2.08124e-07 -4.62971e-08 0)
(2.2897e-07 -6.41285e-08 0)
(2.43471e-07 -8.15415e-08 0)
(2.54144e-07 -9.71893e-08 0)
(2.62366e-07 -1.11386e-07 0)
(2.68995e-07 -1.24359e-07 0)
(2.74545e-07 -1.36232e-07 0)
(2.79331e-07 -1.47112e-07 0)
(2.83552e-07 -1.57098e-07 0)
(2.87336e-07 -1.66278e-07 0)
(2.90768e-07 -1.74733e-07 0)
(2.9391e-07 -1.82533e-07 0)
(2.96803e-07 -1.89781e-07 0)
(2.99476e-07 -1.96482e-07 0)
(3.01966e-07 -2.02681e-07 0)
(3.04288e-07 -2.08422e-07 0)
(3.06455e-07 -2.13753e-07 0)
(3.0848e-07 -2.18707e-07 0)
(0.280917 0.501614 0.25)
)


scaledInput
-1.15105 0 0 
-1.09579 1.0261 0 
-1.07026 0.966447 0 
-1.05173 0.899361 0 
-1.03634 0.815345 0 
-1.02182 0.734475 0 
-1.00831 0.656148 0 
-0.995576 0.581534 0 
-0.983578 0.511501 0 
-0.972299 0.446539 0 
-0.96172 0.386803 0 
-0.951816 0.332208 0 
-0.942557 0.28251 0 
-0.933906 0.237375 0 
-0.925826 0.195708 0 
-0.918219 0.158287 0 
-0.911073 0.124476 0 
-0.904431 0.093813 0 
-0.89823 0.0660298 0 
-0.892439 0.0406588 0 
-1.26361 -0.875541 0 

scaledResult
-0.796603
-0.273881
0.000727803

result
3.4167e-07
-2.94448e-07
0.000727803
inputFoam

21
(
(1.25742e-07 0 0)
(1.76435e-07 -2.96941e-08 0)
(2.06513e-07 -5.21152e-08 0)
(2.25736e-07 -7.09109e-08 0)
(2.38761e-07 -8.86087e-08 0)
(2.48063e-07 -1.0415e-07 0)
(2.55054e-07 -1.18031e-07 0)
(2.60571e-07 -1.30584e-07 0)
(2.65114e-07 -1.41995e-07 0)
(2.68987e-07 -1.5241e-07 0)
(2.72376e-07 -1.61945e-07 0)
(2.75403e-07 -1.70701e-07 0)
(2.78145e-07 -1.7876e-07 0)
(2.80656e-07 -1.86195e-07 0)
(2.82973e-07 -1.93103e-07 0)
(2.85119e-07 -1.99496e-07 0)
(2.87139e-07 -2.05413e-07 0)
(2.89024e-07 -2.10899e-07 0)
(2.90786e-07 -2.15998e-07 0)
(2.92437e-07 -2.20737e-07 0)
(0.305315 0.54518 0.25)
)


scaledInput
-1.13974 0 0 
-1.09533 0.944256 0 
-1.07721 0.886984 0 
-1.06458 0.824666 0 
-1.05413 0.746035 0 
-1.04406 0.670959 0 
-1.03445 0.598333 0 
-1.02519 0.529204 0 
-1.0163 0.464325 0 
-1.00781 0.404122 0 
-0.999742 0.348729 0 
-0.992096 0.298066 0 
-0.984868 0.25191 0 
-0.978045 0.209955 0 
-0.971611 0.17117 0 
-0.965491 0.13632 0 
-0.959644 0.104805 0 
-0.954192 0.0761876 0 
-0.949079 0.0502317 0 
-0.944277 0.0265267 0 
-1.22071 -0.798936 0 

scaledResult
-0.860847
-0.271728
-0.00241062

result
3.20258e-07
-2.94076e-07
-0.00241062
inputFoam

21
(
(1.28012e-07 0 0)
(1.77954e-07 -3.33374e-08 0)
(2.07019e-07 -5.78361e-08 0)
(2.25216e-07 -7.76653e-08 0)
(2.37283e-07 -9.5742e-08 0)
(2.45716e-07 -1.11258e-07 0)
(2.51895e-07 -1.24923e-07 0)
(2.5666e-07 -1.37165e-07 0)
(2.60514e-07 -1.48227e-07 0)
(2.63754e-07 -1.58285e-07 0)
(2.66565e-07 -1.67474e-07 0)
(2.69063e-07 -1.75902e-07 0)
(2.71324e-07 -1.83658e-07 0)
(2.73394e-07 -1.90813e-07 0)
(2.75308e-07 -1.97462e-07 0)
(2.77083e-07 -2.03621e-07 0)
(2.7876e-07 -2.09327e-07 0)
(2.8033e-07 -2.1462e-07 0)
(2.81804e-07 -2.19545e-07 0)
(2.8319e-07 -2.24125e-07 0)
(0.329716 0.58875 0.25)
)


scaledInput
-1.12477 0 0 
-1.08776 0.863966 0 
-1.07503 0.80885 0 
-1.06665 0.750277 0 
-1.05972 0.676077 0 
-1.05264 0.606096 0 
-1.04574 0.538372 0 
-1.03893 0.473878 0 
-1.03226 0.413315 0 
-1.02578 0.357083 0 
-1.01951 0.305307 0 
-1.0135 0.257913 0 
-1.00773 0.214698 0 
-1.00223 0.175381 0 
-0.996988 0.138969 0 
-0.991948 0.106243 0 
-0.987092 0.0766276 0 
-0.982535 0.04971 0 
-0.978229 0.0252753 0 
-0.974155 0.0029335 0 
-1.1778 -0.722323 -8.32667e-17 

scaledResult
-0.899727
-0.280311
-0.00281991

result
3.07299e-07
-2.9556e-07
-0.00281991
inputFoam

21
(
(1.30693e-07 0 0)
(1.80433e-07 -3.69363e-08 0)
(2.09011e-07 -6.35046e-08 0)
(2.26629e-07 -8.44154e-08 0)
(2.38117e-07 -1.02918e-07 0)
(2.46005e-07 -1.18477e-07 0)
(2.51652e-07 -1.31995e-07 0)
(2.55914e-07 -1.43992e-07 0)
(2.59297e-07 -1.54763e-07 0)
(2.62103e-07 -1.64514e-07 0)
(2.64514e-07 -1.73401e-07 0)
(2.66645e-07 -1.8154e-07 0)
(2.68567e-07 -1.89025e-07 0)
(2.70328e-07 -1.95929e-07 0)
(2.71958e-07 -2.02348e-07 0)
(2.73471e-07 -2.08295e-07 0)
(2.74901e-07 -2.13808e-07 0)
(2.76246e-07 -2.18925e-07 0)
(2.77515e-07 -2.23689e-07 0)
(2.78715e-07 -2.2812e-07 0)
(0.354118 0.632322 0.25)
)


scaledInput
-1.10709 0 0 
-1.07541 0.784655 0 
-1.06644 0.731431 0 
-1.06103 0.675936 0 
-1.05657 0.605702 0 
-1.05158 0.540222 0 
-1.0466 0.476839 0 
-1.04155 0.416487 0 
-1.03648 0.359822 0 
-1.03144 0.307209 0 
-1.02649 0.258755 0 
-1.02166 0.21439 0 
-1.01697 0.173917 0 
-1.01244 0.137076 0 
-1.00808 0.102882 0 
-1.00384 0.0721649 0 
-0.999735 0.044362 0 
-0.995849 0.0190797 0 
-0.992146 -0.00388468 0 
-0.988615 -0.0248798 0 
-1.1349 -0.645706 -2.77556e-17 

scaledResult
-0.918925
-0.293026
-0.00192179

result
3.00901e-07
-2.97759e-07
-0.00192179
inputFoam

21
(
(1.33652e-07 0 0)
(1.83587e-07 -4.04974e-08 0)
(2.12065e-07 -6.91354e-08 0)
(2.2943e-07 -9.11472e-08 0)
(2.40615e-07 -1.10118e-07 0)
(2.48172e-07 -1.25782e-07 0)
(2.53485e-07 -1.39214e-07 0)
(2.5742e-07 -1.51023e-07 0)
(2.60492e-07 -1.61556e-07 0)
(2.63003e-07 -1.71051e-07 0)
(2.6514e-07 -1.79682e-07 0)
(2.67015e-07 -1.87576e-07 0)
(2.687e-07 -1.94831e-07 0)
(2.70241e-07 -2.01524e-07 0)
(2.71667e-07 -2.07747e-07 0)
(2.72989e-07 -2.13518e-07 0)
(2.74236e-07 -2.1887e-07 0)
(2.75414e-07 -2.23841e-07 0)
(2.76529e-07 -2.28475e-07 0)
(2.77587e-07 -2.32785e-07 0)
(0.378521 0.675897 0.25)
)


scaledInput
-1.08757 0 0 
-1.0597 0.706177 0 
-1.05326 0.654527 0 
-1.0499 0.601797 0 
-1.04713 0.535086 0 
-1.04365 0.473555 0 
-1.04005 0.414027 0 
-1.03626 0.357381 0 
-1.03234 0.304221 0 
-1.02835 0.254871 0 
-1.02436 0.209419 0 
-1.02041 0.167789 0 
-1.01653 0.129794 0 
-1.01273 0.0951864 0 
-1.00904 0.0629983 0 
-1.00543 0.0340915 0 
-1.00191 0.0079166 0 
-0.998564 -0.0159047 0 
-0.995348 -0.0375616 0 
-0.99226 -0.0573598 0 
-1.09199 -0.569085 -2.77556e-17 

scaledResult
-0.927879
-0.311339
-0.0009518

result
2.97917e-07
-3.00926e-07
-0.0009518
inputFoam

21
(
(1.36775e-07 0 0)
(1.87176e-07 -4.40196e-08 0)
(2.15822e-07 -7.4722e-08 0)
(2.33171e-07 -9.78751e-08 0)
(2.44265e-07 -1.17352e-07 0)
(2.51668e-07 -1.33166e-07 0)
(2.56798e-07 -1.46554e-07 0)
(2.60539e-07 -1.58216e-07 0)
(2.63415e-07 -1.68548e-07 0)
(2.65734e-07 -1.77822e-07 0)
(2.67685e-07 -1.86229e-07 0)
(2.69385e-07 -1.93906e-07 0)
(2.70904e-07 -2.00957e-07 0)
(2.7229e-07 -2.07461e-07 0)
(2.7357e-07 -2.13504e-07 0)
(2.74756e-07 -2.19113e-07 0)
(2.75874e-07 -2.2432e-07 0)
(2.76932e-07 -2.29161e-07 0)
(2.77937e-07 -2.33677e-07 0)
(2.78894e-07 -2.37884e-07 0)
(0.402925 0.719474 0.25)
)


scaledInput
-1.06698 0 0 
-1.04182 0.628558 0 
-1.03706 0.578227 0 
-1.03504 0.5277 0 
-1.03334 0.464142 0 
-1.03087 0.406178 0 
-1.02821 0.350164 0 
-1.0253 0.296917 0 
-1.0222 0.246987 0 
-1.01898 0.200659 0 
-1.0157 0.158 0 
-1.01241 0.118923 0 
-1.00914 0.0832483 0 
-1.00591 0.0507373 0 
-1.00274 0.0204723 0 
-0.999612 -0.00670383 0 
-0.996548 -0.0313277 0 
-0.993612 -0.0537567 0 
-0.990777 -0.0741688 0 
-0.988037 -0.0928632 0 
-1.04907 -0.49246 -5.55112e-17 

scaledResult
-0.929984
-0.332625
0.000253126

result
2.97215e-07
-3.04606e-07
0.000253126
inputFoam

21
(
(1.39965e-07 0 0)
(1.91061e-07 -4.74999e-08 0)
(2.20098e-07 -8.02683e-08 0)
(2.37639e-07 -1.04582e-07 0)
(2.48814e-07 -1.24595e-07 0)
(2.56214e-07 -1.40621e-07 0)
(2.61287e-07 -1.54026e-07 0)
(2.64938e-07 -1.65597e-07 0)
(2.67704e-07 -1.7578e-07 0)
(2.69906e-07 -1.84877e-07 0)
(2.71736e-07 -1.93098e-07 0)
(2.73315e-07 -2.00592e-07 0)
(2.74716e-07 -2.07466e-07 0)
(2.75988e-07 -2.13805e-07 0)
(2.77161e-07 -2.19695e-07 0)
(2.78242e-07 -2.25163e-07 0)
(2.79248e-07 -2.30241e-07 0)
(2.80206e-07 -2.34962e-07 0)
(2.81119e-07 -2.39371e-07 0)
(2.81991e-07 -2.43476e-07 0)
(0.42733 0.763053 0.25)
)


scaledInput
-1.04594 0 0 
-1.02247 0.551858 0 
-1.01862 0.502477 0 
-1.01729 0.453833 0 
-1.01615 0.393107 0 
-1.01425 0.338152 0 
-1.01217 0.285152 0 
-1.00984 0.234869 0 
-1.00731 0.187796 0 
-1.00466 0.144175 0 
-1.00192 0.104047 0 
-0.999146 0.067313 0 
-0.996362 0.0337892 0 
-0.993592 0.00324286 0 
-0.990854 -0.0252534 0 
-0.988135 -0.050809 0 
-0.985494 -0.0739579 0 
-0.98294 -0.0950389 0 
-0.980453 -0.114232 0 
-0.978029 -0.1318 0 
-1.00616 -0.415832 0 

scaledResult
-0.922358
-0.365072
-0.00127951

result
2.99757e-07
-3.10217e-07
-0.00127951
inputFoam

21
(
(1.4315e-07 0 0)
(1.95093e-07 -5.08903e-08 0)
(2.24706e-07 -8.56951e-08 0)
(2.42621e-07 -1.11166e-07 0)
(2.54044e-07 -1.31723e-07 0)
(2.61574e-07 -1.47956e-07 0)
(2.66701e-07 -1.6138e-07 0)
(2.70355e-07 -1.7287e-07 0)
(2.73089e-07 -1.82921e-07 0)
(2.75237e-07 -1.91865e-07 0)
(2.76999e-07 -1.99926e-07 0)
(2.78502e-07 -2.07262e-07 0)
(2.79824e-07 -2.13988e-07 0)
(2.81014e-07 -2.20188e-07 0)
(2.82105e-07 -2.2595e-07 0)
(2.83105e-07 -2.31301e-07 0)
(2.8403e-07 -2.36274e-07 0)
(2.84912e-07 -2.40898e-07 0)
(2.85752e-07 -2.4522e-07 0)
(2.86556e-07 -2.49244e-07 0)
(0.451736 0.806633 0.25)
)


scaledInput
-1.02494 0 0 
-1.00238 0.477143 0 
-0.99875 0.428359 0 
-0.997488 0.381329 0 
-0.996395 0.323206 0 
-0.994649 0.27122 0 
-0.992815 0.22117 0 
-0.990796 0.173726 0 
-0.988628 0.129341 0 
-0.986354 0.08823 0 
-0.984013 0.0504231 0 
-0.981634 0.0158189 0 
-0.979242 -0.0157634 0 
-0.976854 -0.0445475 0 
-0.974485 -0.0714555 0 
-0.972123 -0.0955619 0 
-0.969828 -0.117396 0 
-0.967599 -0.137276 0 
-0.965417 -0.155388 0 
-0.963278 -0.171961 0 
-0.963245 -0.339202 -2.77556e-17 

scaledResult
-0.911862
-0.396542
-0.00191911

result
3.03255e-07
-3.15659e-07
-0.00191911
inputFoam

21
(
(1.46283e-07 0 0)
(1.99027e-07 -5.43198e-08 0)
(2.29218e-07 -9.12728e-08 0)
(2.47555e-07 -1.1801e-07 0)
(2.59295e-07 -1.39167e-07 0)
(2.67027e-07 -1.55653e-07 0)
(2.72286e-07 -1.6912e-07 0)
(2.76019e-07 -1.80538e-07 0)
(2.78796e-07 -1.9046e-07 0)
(2.80959e-07 -1.99247e-07 0)
(2.82718e-07 -2.07143e-07 0)
(2.84203e-07 -2.14316e-07 0)
(2.85498e-07 -2.20887e-07 0)
(2.86655e-07 -2.26942e-07 0)
(2.87708e-07 -2.32567e-07 0)
(2.88666e-07 -2.37798e-07 0)
(2.89544e-07 -2.4266e-07 0)
(2.90379e-07 -2.47183e-07 0)
(2.91174e-07 -2.51414e-07 0)
(2.91934e-07 -2.55349e-07 0)
(0.476143 0.850214 0.25)
)


scaledInput
-1.00428 0 0 
-0.982784 0.401565 0 
-0.979293 0.352181 0 
-0.977884 0.305953 0 
-0.976558 0.250198 0 
-0.974708 0.200981 0 
-0.972852 0.15383 0 
-0.970886 0.10926 0 
-0.968828 0.0676365 0 
-0.96671 0.0291285 0 
-0.964557 -0.00625997 0 
-0.962389 -0.0386386 0 
-0.960221 -0.0681864 0 
-0.958067 -0.0951187 0 
-0.955934 -0.120339 0 
-0.95381 -0.142923 0 
-0.951766 -0.163379 0 
-0.949775 -0.182002 0 
-0.947821 -0.198974 0 
-0.9459 -0.214471 0 
-0.920329 -0.262569 -2.77556e-17 

scaledResult
-0.902516
-0.423246
-0.00136981

result
3.0637e-07
-3.20277e-07
-0.00136981
inputFoam

21
(
(1.05266e-07 0 0)
(1.5242e-07 -2.35704e-08 0)
(1.81983e-07 -4.27563e-08 0)
(2.01912e-07 -6.04557e-08 0)
(2.16136e-07 -7.85568e-08 0)
(2.26874e-07 -9.52214e-08 0)
(2.35317e-07 -1.10595e-07 0)
(2.42238e-07 -1.24787e-07 0)
(2.48105e-07 -1.37856e-07 0)
(2.53208e-07 -1.49876e-07 0)
(2.57731e-07 -1.6093e-07 0)
(2.61797e-07 -1.71102e-07 0)
(2.65489e-07 -1.80472e-07 0)
(2.68867e-07 -1.89114e-07 0)
(2.71973e-07 -1.97146e-07 0)
(2.74839e-07 -2.04567e-07 0)
(2.77502e-07 -2.11427e-07 0)
(2.7998e-07 -2.17775e-07 0)
(2.82288e-07 -2.23663e-07 0)
(2.84438e-07 -2.29127e-07 0)
(0.219793 0.476767 0.25)
)


scaledInput
-1.27477 0 0 
-1.21496 1.07921 0 
-1.18299 1.01481 0 
-1.15924 0.939811 0 
-1.13961 0.844617 0 
-1.12154 0.752432 0 
-1.10499 0.663035 0 
-1.08962 0.577938 0 
-1.07531 0.498206 0 
-1.06198 0.424409 0 
-1.04957 0.356705 0 
-1.03802 0.294973 0 
-1.02729 0.238906 0 
-1.01731 0.1881 0 
-1.00803 0.141304 0 
-0.999337 0.0993425 0 
-0.991214 0.0615046 0 
-0.983676 0.0272612 0 
-0.976659 -0.00370647 0 
-0.970122 -0.0318921 0 
-1.37109 -0.919231 0 

scaledResult
-0.866129
-0.381707
-0.00145159

result
3.18498e-07
-3.13094e-07
-0.00145159
inputFoam

21
(
(1.06077e-07 0 0)
(1.50654e-07 -2.79581e-08 0)
(1.77558e-07 -4.9847e-08 0)
(1.9508e-07 -6.90384e-08 0)
(2.07188e-07 -8.78261e-08 0)
(2.16056e-07 -1.04707e-07 0)
(2.22838e-07 -1.20037e-07 0)
(2.28276e-07 -1.34047e-07 0)
(2.32811e-07 -1.46867e-07 0)
(2.36714e-07 -1.58613e-07 0)
(2.40151e-07 -1.6939e-07 0)
(2.43231e-07 -1.79296e-07 0)
(2.46025e-07 -1.88416e-07 0)
(2.48583e-07 -1.96826e-07 0)
(2.50939e-07 -2.04638e-07 0)
(2.53118e-07 -2.1186e-07 0)
(2.55138e-07 -2.18539e-07 0)
(2.57027e-07 -2.24724e-07 0)
(2.58794e-07 -2.30465e-07 0)
(2.60447e-07 -2.35803e-07 0)
(0.240695 0.522108 0.25)
)


scaledInput
-1.26942 0 0 
-1.22376 0.982514 0 
-1.20208 0.917963 0 
-1.18639 0.845288 0 
-1.17342 0.75371 0 
-1.1611 0.66587 0 
-1.14959 0.580882 0 
-1.1387 0.500094 0 
-1.12837 0.424452 0 
-1.1186 0.35446 0 
-1.10938 0.290255 0 
-1.1007 0.231714 0 
-1.09253 0.178544 0 
-1.08486 0.130359 0 
-1.07766 0.0859668 0 
-1.07086 0.0461793 0 
-1.06448 0.0102983 0 
-1.05851 -0.0221829 0 
-1.0529 -0.051563 0 
-1.04764 -0.0783731 0 
-1.33434 -0.839504 0 

scaledResult
-0.955548
-0.413511
-0.00302299

result
2.88695e-07
-3.18593e-07
-0.00302299
inputFoam

21
(
(1.07486e-07 0 0)
(1.50508e-07 -3.20717e-08 0)
(1.75831e-07 -5.64231e-08 0)
(1.91847e-07 -7.68701e-08 0)
(2.02589e-07 -9.61908e-08 0)
(2.10189e-07 -1.13166e-07 0)
(2.15835e-07 -1.28353e-07 0)
(2.20248e-07 -1.42095e-07 0)
(2.23856e-07 -1.54589e-07 0)
(2.26917e-07 -1.65991e-07 0)
(2.29588e-07 -1.76429e-07 0)
(2.3197e-07 -1.86011e-07 0)
(2.34127e-07 -1.94828e-07 0)
(2.36103e-07 -2.02958e-07 0)
(2.37927e-07 -2.10514e-07 0)
(2.39618e-07 -2.17503e-07 0)
(2.41214e-07 -2.23969e-07 0)
(2.42706e-07 -2.2996e-07 0)
(2.44105e-07 -2.35525e-07 0)
(2.45416e-07 -2.40696e-07 0)
(0.2616 0.567454 0.25)
)


scaledInput
-1.26013 0 0 
-1.22449 0.89186 0 
-1.20953 0.828148 0 
-1.19923 0.759034 0 
-1.1908 0.671676 0 
-1.18255 0.58868 0 
-1.17462 0.508525 0 
-1.16691 0.432435 0 
-1.15944 0.361241 0 
-1.15223 0.295382 0 
-1.14532 0.234968 0 
-1.13871 0.179874 0 
-1.13241 0.129822 0 
-1.12642 0.0844492 0 
-1.12074 0.0425578 0 
-1.11531 0.00503594 0 
-1.11009 -0.0287986 0 
-1.10519 -0.0594441 0 
-1.10057 -0.0871735 0 
-1.09621 -0.112445 0 
-1.29758 -0.759769 0 

scaledResult
-1.01137
-0.431066
-0.00351307

result
2.70089e-07
-3.21629e-07
-0.00351307
inputFoam

21
(
(1.09348e-07 0 0)
(1.51616e-07 -3.5971e-08 0)
(1.76023e-07 -6.2632e-08 0)
(1.91107e-07 -8.42997e-08 0)
(2.00974e-07 -1.04159e-07 0)
(2.07774e-07 -1.21244e-07 0)
(2.12683e-07 -1.36327e-07 0)
(2.16418e-07 -1.49856e-07 0)
(2.19404e-07 -1.62089e-07 0)
(2.21893e-07 -1.73213e-07 0)
(2.24041e-07 -1.83377e-07 0)
(2.25943e-07 -1.92698e-07 0)
(2.2766e-07 -2.01273e-07 0)
(2.29234e-07 -2.09181e-07 0)
(2.30689e-07 -2.16535e-07 0)
(2.32039e-07 -2.23341e-07 0)
(2.33316e-07 -2.29641e-07 0)
(2.34514e-07 -2.35482e-07 0)
(2.35642e-07 -2.40914e-07 0)
(2.36706e-07 -2.45962e-07 0)
(0.282506 0.612804 0.25)
)


scaledInput
-1.24785 0 0 
-1.21897 0.805928 0 
-1.2087 0.743349 0 
-1.20217 0.67721 0 
-1.1969 0.593533 0 
-1.19138 0.514972 0 
-1.18589 0.43915 0 
-1.18038 0.367189 0 
-1.17489 0.299858 0 
-1.16948 0.237562 0 
-1.16419 0.180399 0 
-1.15905 0.128249 0 
-1.15409 0.0808505 0 
-1.1493 0.0378609 0 
-1.14471 -0.00191639 0 
-1.14026 -0.0375239 0 
-1.13596 -0.0696361 0 
-1.1319 -0.0987411 0 
-1.12803 -0.12509 0 
-1.12436 -0.149112 0 
-1.26082 -0.680027 0 

scaledResult
-1.04721
-0.452747
-0.00344263

result
2.58146e-07
-3.25378e-07
-0.00344263
inputFoam

21
(
(1.11541e-07 0 0)
(1.53589e-07 -3.96943e-08 0)
(1.77561e-07 -6.85621e-08 0)
(1.92131e-07 -9.14452e-08 0)
(2.01485e-07 -1.11841e-07 0)
(2.07791e-07 -1.2906e-07 0)
(2.12222e-07 -1.44076e-07 0)
(2.15505e-07 -1.57429e-07 0)
(2.18068e-07 -1.69432e-07 0)
(2.20166e-07 -1.80306e-07 0)
(2.21952e-07 -1.90219e-07 0)
(2.2352e-07 -1.99297e-07 0)
(2.24931e-07 -2.07643e-07 0)
(2.26222e-07 -2.1534e-07 0)
(2.27418e-07 -2.22499e-07 0)
(2.28527e-07 -2.29126e-07 0)
(2.29572e-07 -2.35264e-07 0)
(2.3056e-07 -2.40958e-07 0)
(2.31496e-07 -2.46256e-07 0)
(2.32385e-07 -2.51181e-07 0)
(0.303414 0.658157 0.25)
)


scaledInput
-1.23339 0 0 
-1.20914 0.723877 0 
-1.20207 0.662357 0 
-1.19811 0.598515 0 
-1.19497 0.518189 0 
-1.19132 0.443643 0 
-1.18754 0.371732 0 
-1.18359 0.30353 0 
-1.17952 0.239754 0 
-1.17541 0.180771 0 
-1.1713 0.126664 0 
-1.16723 0.0773059 0 
-1.16323 0.0324438 0 
-1.15933 -0.00825076 0 
-1.15553 -0.0459692 0 
-1.15182 -0.0797058 0 
-1.14823 -0.110128 0 
-1.14479 -0.137707 0 
-1.14149 -0.16268 0 
-1.13832 -0.185446 0 
-1.22405 -0.600279 5.55112e-17 

scaledResult
-1.06882
-0.474201
-0.00285805

result
2.50941e-07
-3.29088e-07
-0.00285805
inputFoam

21
(
(1.13959e-07 0 0)
(1.56158e-07 -4.32973e-08 0)
(1.80037e-07 -7.43216e-08 0)
(1.94383e-07 -9.84009e-08 0)
(2.03474e-07 -1.19341e-07 0)
(2.09487e-07 -1.36734e-07 0)
(2.13619e-07 -1.51723e-07 0)
(2.1661e-07 -1.64942e-07 0)
(2.18895e-07 -1.76753e-07 0)
(2.20729e-07 -1.87414e-07 0)
(2.22268e-07 -1.97107e-07 0)
(2.23607e-07 -2.05974e-07 0)
(2.24804e-07 -2.14121e-07 0)
(2.25897e-07 -2.21633e-07 0)
(2.26909e-07 -2.28621e-07 0)
(2.27847e-07 -2.35094e-07 0)
(2.28729e-07 -2.41093e-07 0)
(2.29567e-07 -2.46661e-07 0)
(2.30365e-07 -2.51845e-07 0)
(2.31128e-07 -2.56666e-07 0)
(0.324324 0.703512 0.25)
)


scaledInput
-1.21744 0 0 
-1.19634 0.644475 0 
-1.19139 0.583695 0 
-1.18916 0.52191 0 
-1.18745 0.444634 0 
-1.18512 0.373619 0 
-1.18254 0.30519 0 
-1.1797 0.240374 0 
-1.17666 0.179827 0 
-1.17348 0.123871 0 
-1.17022 0.0725593 0 
-1.16694 0.0257608 0 
-1.16366 -0.016776 0 
-1.16041 -0.0553676 0 
-1.15722 -0.0911918 0 
-1.15406 -0.123215 0 
-1.15099 -0.152094 0 
-1.14803 -0.178284 0 
-1.14516 -0.202009 0 
-1.14238 -0.223641 0 
-1.18729 -0.520527 5.55112e-17 

scaledResult
-1.08033
-0.49758
-0.00203395

result
2.47105e-07
-3.33131e-07
-0.00203395
inputFoam

21
(
(1.16517e-07 0 0)
(1.59125e-07 -4.68069e-08 0)
(1.83158e-07 -7.99539e-08 0)
(1.97503e-07 -1.05233e-07 0)
(2.0653e-07 -1.26735e-07 0)
(2.12408e-07 -1.44327e-07 0)
(2.16381e-07 -1.59316e-07 0)
(2.19202e-07 -1.72424e-07 0)
(2.21314e-07 -1.84069e-07 0)
(2.22979e-07 -1.94538e-07 0)
(2.24355e-07 -2.04036e-07 0)
(2.25538e-07 -2.12711e-07 0)
(2.26588e-07 -2.20676e-07 0)
(2.27543e-07 -2.2802e-07 0)
(2.28424e-07 -2.34851e-07 0)
(2.29239e-07 -2.41181e-07 0)
(2.30009e-07 -2.47052e-07 0)
(2.30743e-07 -2.52503e-07 0)
(2.31443e-07 -2.57584e-07 0)
(2.32115e-07 -2.62312e-07 0)
(0.345234 0.74887 0.25)
)


scaledInput
-1.20058 0 0 
-1.18156 0.567132 0 
-1.17793 0.506771 0 
-1.17676 0.446669 0 
-1.17591 0.372116 0 
-1.17444 0.304328 0 
-1.17267 0.239134 0 
-1.17059 0.177476 0 
-1.16826 0.119948 0 
-1.16575 0.0668276 0 
-1.16312 0.0181443 0 
-1.16042 -0.0262438 0 
-1.15768 -0.0665861 0 
-1.15493 -0.10319 0 
-1.1522 -0.137208 0 
-1.14948 -0.167594 0 
-1.1468 -0.195 0 
-1.1442 -0.219859 0 
-1.14166 -0.242389 0 
-1.13919 -0.26295 0 
-1.15052 -0.440772 -5.55112e-17 

scaledResult
-1.08481
-0.522052
-0.00117221

result
2.45611e-07
-3.37363e-07
-0.00117221
inputFoam

21
(
(1.19151e-07 0 0)
(1.62379e-07 -5.01936e-08 0)
(1.86755e-07 -8.5423e-08 0)
(2.01273e-07 -1.11917e-07 0)
(2.10383e-07 -1.33995e-07 0)
(2.16286e-07 -1.51841e-07 0)
(2.20231e-07 -1.66883e-07 0)
(2.22989e-07 -1.79932e-07 0)
(2.25018e-07 -1.91457e-07 0)
(2.26588e-07 -2.01777e-07 0)
(2.27863e-07 -2.11113e-07 0)
(2.28944e-07 -2.19626e-07 0)
(2.29892e-07 -2.27436e-07 0)
(2.30746e-07 -2.34634e-07 0)
(2.31531e-07 -2.4133e-07 0)
(2.32252e-07 -2.47536e-07 0)
(2.32923e-07 -2.53292e-07 0)
(2.33565e-07 -2.58638e-07 0)
(2.34181e-07 -2.63623e-07 0)
(2.34774e-07 -2.68258e-07 0)
(0.366145 0.794229 0.25)
)


scaledInput
-1.1832 0 0 
-1.16535 0.492497 0 
-1.16242 0.432076 0 
-1.16178 0.373052 0 
-1.16135 0.300916 0 
-1.16025 0.235765 0 
-1.15891 0.173295 0 
-1.15728 0.114358 0 
-1.15541 0.0594754 0 
-1.15336 0.00887561 0 
-1.15119 -0.0374415 0 
-1.14892 -0.0796333 0 
-1.14661 -0.117954 0 
-1.14426 -0.152708 0 
-1.14192 -0.185062 0 
-1.13956 -0.21392 0 
-1.13725 -0.239931 0 
-1.13499 -0.263511 0 
-1.13278 -0.28488 0 
-1.1306 -0.304352 0 
-1.11375 -0.361013 5.55112e-17 

scaledResult
-1.08118
-0.552154
-0.000631738

result
2.46822e-07
-3.42568e-07
-0.000631738
inputFoam

21
(
(1.2182e-07 0 0)
(1.6584e-07 -5.344e-08 0)
(1.90739e-07 -9.07064e-08 0)
(2.05601e-07 -1.18412e-07 0)
(2.14942e-07 -1.4108e-07 0)
(2.20979e-07 -1.59185e-07 0)
(2.24987e-07 -1.74291e-07 0)
(2.27759e-07 -1.87297e-07 0)
(2.29768e-07 -1.98721e-07 0)
(2.31295e-07 -2.08912e-07 0)
(2.32513e-07 -2.1811e-07 0)
(2.33526e-07 -2.26485e-07 0)
(2.34402e-07 -2.34162e-07 0)
(2.35181e-07 -2.41236e-07 0)
(2.3589e-07 -2.4781e-07 0)
(2.36535e-07 -2.53909e-07 0)
(2.37127e-07 -2.59569e-07 0)
(2.37694e-07 -2.64827e-07 0)
(2.38238e-07 -2.69734e-07 0)
(2.38764e-07 -2.74298e-07 0)
(0.387056 0.839589 0.25)
)


scaledInput
-1.1656 0 0 
-1.14811 0.420953 0 
-1.14523 0.359917 0 
-1.14458 0.301526 0 
-1.14412 0.231436 0 
-1.14309 0.168743 0 
-1.14191 0.108838 0 
-1.14051 0.052446 0 
-1.13893 1.7804e-05 0 
-1.1372 -0.0482564 0 
-1.13537 -0.0924005 0 
-1.13346 -0.132584 0 
-1.13149 -0.169062 0 
-1.12949 -0.202135 0 
-1.12748 -0.232935 0 
-1.12546 -0.260387 0 
-1.12348 -0.28513 0 
-1.12153 -0.307555 0 
-1.11961 -0.327883 0 
-1.11771 -0.346403 0 
-1.07698 -0.281252 0 

scaledResult
-1.07184
-0.582218
-0.000212063

result
2.49934e-07
-3.47767e-07
-0.000212063
inputFoam

21
(
(1.24499e-07 0 0)
(1.69314e-07 -5.66509e-08 0)
(1.94759e-07 -9.60143e-08 0)
(2.10014e-07 -1.25007e-07 0)
(2.19648e-07 -1.48318e-07 0)
(2.25872e-07 -1.66734e-07 0)
(2.3e-07 -1.81935e-07 0)
(2.32843e-07 -1.94917e-07 0)
(2.34888e-07 -2.06251e-07 0)
(2.36425e-07 -2.1632e-07 0)
(2.37634e-07 -2.25381e-07 0)
(2.38626e-07 -2.33618e-07 0)
(2.39471e-07 -2.41161e-07 0)
(2.40213e-07 -2.48107e-07 0)
(2.4088e-07 -2.54551e-07 0)
(2.41479e-07 -2.60538e-07 0)
(2.42016e-07 -2.66099e-07 0)
(2.42532e-07 -2.71267e-07 0)
(2.43026e-07 -2.76093e-07 0)
(2.43503e-07 -2.80584e-07 0)
(0.407968 0.884951 0.25)
)


scaledInput
-1.14794 0 0 
-1.1308 0.350193 0 
-1.1279 0.287423 0 
-1.12705 0.228884 0 
-1.12635 0.160447 0 
-1.1252 0.0998627 0 
-1.12399 0.04233 0 
-1.12264 -0.0116117 0 
-1.12117 -0.0616173 0 
-1.11959 -0.107562 0 
-1.11794 -0.149508 0 
-1.11624 -0.187645 0 
-1.1145 -0.222236 0 
-1.11274 -0.25358 0 
-1.11097 -0.282726 0 
-1.10918 -0.308713 0 
-1.10746 -0.332142 0 
-1.10576 -0.353375 0 
-1.10407 -0.372627 0 
-1.10239 -0.390177 0 
-1.04021 -0.201489 -5.55112e-17 

scaledResult
-1.06089
-0.616806
-0.00035043

result
2.53584e-07
-3.53748e-07
-0.00035043
inputFoam

21
(
(8.68932e-08 0 0)
(1.25808e-07 -2.47382e-08 0)
(1.50229e-07 -4.47991e-08 0)
(1.6662e-07 -6.32581e-08 0)
(1.78273e-07 -8.22258e-08 0)
(1.86998e-07 -9.97033e-08 0)
(1.9385e-07 -1.15836e-07 0)
(1.99463e-07 -1.30728e-07 0)
(2.04222e-07 -1.44439e-07 0)
(2.08362e-07 -1.57046e-07 0)
(2.12033e-07 -1.68639e-07 0)
(2.15335e-07 -1.79304e-07 0)
(2.18335e-07 -1.89127e-07 0)
(2.21081e-07 -1.98185e-07 0)
(2.23609e-07 -2.06604e-07 0)
(2.25942e-07 -2.14381e-07 0)
(2.2813e-07 -2.21569e-07 0)
(2.3016e-07 -2.28219e-07 0)
(2.32048e-07 -2.34387e-07 0)
(2.33805e-07 -2.40107e-07 0)
(0.181708 0.492542 0.25)
)


scaledInput
-1.39593 0 0 
-1.34754 1.05347 0 
-1.31994 0.986906 0 
-1.29947 0.908947 0 
-1.28266 0.808634 0 
-1.26736 0.711534 0 
-1.2532 0.617432 0 
-1.23997 0.527991 0 
-1.22756 0.444324 0 
-1.21593 0.366999 0 
-1.20505 0.296159 0 
-1.19486 0.231652 0 
-1.18535 0.173141 0 
-1.17645 0.120183 0 
-1.16814 0.0714414 0 
-1.16033 0.0277936 0 
-1.15295 -0.0115161 0 
-1.14609 -0.0470554 0 
-1.1397 -0.0791651 0 
-1.13373 -0.108341 0 
-1.43806 -0.891492 -5.55112e-17 

scaledResult
-1.03734
-0.46757
-0.00289668

result
2.61433e-07
-3.27941e-07
-0.00289668
inputFoam

21
(
(8.7537e-08 0 0)
(1.24182e-07 -2.96736e-08 0)
(1.46203e-07 -5.29501e-08 0)
(1.60442e-07 -7.33229e-08 0)
(1.70217e-07 -9.33316e-08 0)
(1.77352e-07 -1.11317e-07 0)
(1.82777e-07 -1.27658e-07 0)
(1.87106e-07 -1.42593e-07 0)
(1.90705e-07 -1.56258e-07 0)
(1.93795e-07 -1.68776e-07 0)
(1.96512e-07 -1.8026e-07 0)
(1.98946e-07 -1.90814e-07 0)
(2.01153e-07 -2.00528e-07 0)
(2.03173e-07 -2.09485e-07 0)
(2.05035e-07 -2.17809e-07 0)
(2.06755e-07 -2.25501e-07 0)
(2.08353e-07 -2.32612e-07 0)
(2.09845e-07 -2.39193e-07 0)
(2.11241e-07 -2.453e-07 0)
(2.12549e-07 -2.50971e-07 0)
(0.198989 0.539384 0.25)
)


scaledInput
-1.39169 0 0 
-1.35563 0.944708 0 
-1.3373 0.875582 0 
-1.32402 0.798101 0 
-1.3131 0.699717 0 
-1.30263 0.60556 0 
-1.29278 0.514573 0 
-1.2834 0.428249 0 
-1.27446 0.347584 0 
-1.26594 0.273088 0 
-1.25785 0.204879 0 
-1.25019 0.142798 0 
-1.24294 0.0865111 0 
-1.23609 0.0355871 0 
-1.22964 -0.0113223 0 
-1.22351 -0.0532726 0 
-1.21774 -0.0910291 0 
-1.21232 -0.125144 0 
-1.20722 -0.155952 0 
-1.20241 -0.183985 0 
-1.40767 -0.809128 5.55112e-17 

scaledResult
-1.11621
-0.528295
-0.00255099

result
2.35146e-07
-3.38442e-07
-0.00255099
inputFoam

21
(
(8.86626e-08 0 0)
(1.2393e-07 -3.41044e-08 0)
(1.44539e-07 -6.0154e-08 0)
(1.57449e-07 -8.20777e-08 0)
(1.66028e-07 -1.02854e-07 0)
(1.7208e-07 -1.21127e-07 0)
(1.76524e-07 -1.37496e-07 0)
(1.79964e-07 -1.52315e-07 0)
(1.82755e-07 -1.6579e-07 0)
(1.85108e-07 -1.78085e-07 0)
(1.87154e-07 -1.8934e-07 0)
(1.88974e-07 -1.99669e-07 0)
(1.9062e-07 -2.0917e-07 0)
(1.92128e-07 -2.1793e-07 0)
(1.9352e-07 -2.26074e-07 0)
(1.94808e-07 -2.33602e-07 0)
(1.96018e-07 -2.40563e-07 0)
(1.97151e-07 -2.47008e-07 0)
(1.98216e-07 -2.52992e-07 0)
(1.99218e-07 -2.58543e-07 0)
(0.216272 0.58623 0.25)
)


scaledInput
-1.38426 0 0 
-1.35689 0.847063 0 
-1.34447 0.777193 0 
-1.33591 0.701682 0 
-1.32892 0.606328 0 
-1.3219 0.516041 0 
-1.31513 0.428976 0 
-1.30851 0.346522 0 
-1.30204 0.269567 0 
-1.29576 0.198554 0 
-1.28969 0.133566 0 
-1.28385 0.0744372 0 
-1.27824 0.0208397 0 
-1.27288 -0.0276425 0 
-1.26776 -0.0723768 0 
-1.26284 -0.112334 0 
-1.25815 -0.148276 0 
-1.25371 -0.180753 0 
-1.24949 -0.210077 0 
-1.24549 -0.236711 0 
-1.37728 -0.726754 5.55112e-17 

scaledResult
-1.16828
-0.566743
-0.00167887

result
2.17792e-07
-3.45091e-07
-0.00167887
inputFoam

21
(
(9.01504e-08 0 0)
(1.24725e-07 -3.82208e-08 0)
(1.44543e-07 -6.67972e-08 0)
(1.56649e-07 -9.01202e-08 0)
(1.64473e-07 -1.11582e-07 0)
(1.69811e-07 -1.30099e-07 0)
(1.73603e-07 -1.46479e-07 0)
(1.76444e-07 -1.61186e-07 0)
(1.78687e-07 -1.74486e-07 0)
(1.80539e-07 -1.86583e-07 0)
(1.82125e-07 -1.97634e-07 0)
(1.83524e-07 -2.07766e-07 0)
(1.84785e-07 -2.17083e-07 0)
(1.8594e-07 -2.25673e-07 0)
(1.87008e-07 -2.3366e-07 0)
(1.87998e-07 -2.41046e-07 0)
(1.88934e-07 -2.4788e-07 0)
(1.89814e-07 -2.54214e-07 0)
(1.90645e-07 -2.601e-07 0)
(1.91432e-07 -2.65567e-07 0)
(0.233556 0.63308 0.25)
)


scaledInput
-1.37445 0 0 
-1.35293 0.756348 0 
-1.34446 0.686462 0 
-1.33909 0.613108 0 
-1.3348 0.520725 0 
-1.3302 0.434168 0 
-1.32557 0.350817 0 
-1.32088 0.271951 0 
-1.31615 0.198385 0 
-1.31145 0.130521 0 
-1.3068 0.0684255 0 
-1.30224 0.0119292 0 
-1.2978 -0.0392855 0 
-1.29349 -0.0856186 0 
-1.28932 -0.128411 0 
-1.28527 -0.166606 0 
-1.28135 -0.200965 0 
-1.27763 -0.232032 0 
-1.27406 -0.260094 0 
-1.27065 -0.285617 0 
-1.34689 -0.644374 -2.77556e-17 

scaledResult
-1.2015
-0.599876
-0.000610015

result
2.0672e-07
-3.5082e-07
-0.000610015
inputFoam

21
(
(9.19005e-08 0 0)
(1.26264e-07 -4.20825e-08 0)
(1.45717e-07 -7.30132e-08 0)
(1.57387e-07 -9.76625e-08 0)
(1.64773e-07 -1.19752e-07 0)
(1.69655e-07 -1.3849e-07 0)
(1.73018e-07 -1.54875e-07 0)
(1.75461e-07 -1.69468e-07 0)
(1.77333e-07 -1.82594e-07 0)
(1.78843e-07 -1.94491e-07 0)
(1.80115e-07 -2.05336e-07 0)
(1.81224e-07 -2.15267e-07 0)
(1.82219e-07 -2.24394e-07 0)
(1.83129e-07 -2.32808e-07 0)
(1.83972e-07 -2.40634e-07 0)
(1.84754e-07 -2.47873e-07 0)
(1.85495e-07 -2.54574e-07 0)
(1.86197e-07 -2.60786e-07 0)
(1.86863e-07 -2.66563e-07 0)
(1.87499e-07 -2.7193e-07 0)
(0.250841 0.679934 0.25)
)


scaledInput
-1.36291 0 0 
-1.34526 0.671246 0 
-1.3394 0.601565 0 
-1.33616 0.530041 0 
-1.33367 0.440608 0 
-1.33077 0.357599 0 
-1.32766 0.27777 0 
-1.32433 0.202326 0 
-1.32085 0.132018 0 
-1.31727 0.0672042 0 
-1.31364 0.00792957 0 
-1.31001 -0.0459804 0 
-1.3064 -0.094839 0 
-1.30285 -0.139035 0 
-1.29937 -0.179921 0 
-1.29595 -0.216376 0 
-1.29262 -0.249158 0 
-1.28942 -0.2788 0 
-1.28633 -0.305572 0 
-1.28336 -0.329919 0 
-1.3165 -0.561987 -8.32667e-17 

scaledResult
-1.22075
-0.629951
0.000163446

result
2.00304e-07
-3.56021e-07
0.000163446
inputFoam

21
(
(9.38315e-08 0 0)
(1.2829e-07 -4.57395e-08 0)
(1.47651e-07 -7.8913e-08 0)
(1.59119e-07 -1.04843e-07 0)
(1.66276e-07 -1.27548e-07 0)
(1.70906e-07 -1.46515e-07 0)
(1.74016e-07 -1.62923e-07 0)
(1.76211e-07 -1.77423e-07 0)
(1.77848e-07 -1.90398e-07 0)
(1.79136e-07 -2.02117e-07 0)
(1.80199e-07 -2.12777e-07 0)
(1.81113e-07 -2.22526e-07 0)
(1.81927e-07 -2.31482e-07 0)
(1.82668e-07 -2.39737e-07 0)
(1.83355e-07 -2.47414e-07 0)
(1.83992e-07 -2.54519e-07 0)
(1.84601e-07 -2.611e-07 0)
(1.85179e-07 -2.67205e-07 0)
(1.85731e-07 -2.72885e-07 0)
(1.8626e-07 -2.78166e-07 0)
(0.268127 0.72679 0.25)
)


scaledInput
-1.35018 0 0 
-1.33517 0.590653 0 
-1.33105 0.520987 0 
-1.32927 0.450957 0 
-1.32799 0.36415 0 
-1.3262 0.284361 0 
-1.3241 0.20775 0 
-1.3217 0.135447 0 
-1.31906 0.0681433 0 
-1.31627 0.00615121 0 
-1.31336 -0.0505092 0 
-1.31038 -0.102022 0 
-1.30738 -0.148697 0 
-1.30438 -0.190915 0 
-1.30141 -0.230008 0 
-1.29846 -0.264836 0 
-1.29555 -0.296152 0 
-1.29274 -0.32447 0 
-1.29001 -0.350052 0 
-1.28736 -0.37334 0 
-1.2861 -0.479597 5.55112e-17 

scaledResult
-1.22984
-0.660242
0.000290163

result
1.97275e-07
-3.61259e-07
0.000290163
inputFoam

21
(
(9.58827e-08 0 0)
(1.30683e-07 -4.92205e-08 0)
(1.50184e-07 -8.45538e-08 0)
(1.61657e-07 -1.11741e-07 0)
(1.68765e-07 -1.3506e-07 0)
(1.73299e-07 -1.54275e-07 0)
(1.76288e-07 -1.70723e-07 0)
(1.78349e-07 -1.85151e-07 0)
(1.79846e-07 -1.97995e-07 0)
(1.80993e-07 -2.09554e-07 0)
(1.81918e-07 -2.20045e-07 0)
(1.827e-07 -2.29628e-07 0)
(1.83386e-07 -2.38426e-07 0)
(1.84006e-07 -2.46534e-07 0)
(1.84579e-07 -2.54073e-07 0)
(1.85107e-07 -2.61054e-07 0)
(1.85611e-07 -2.67523e-07 0)
(1.86092e-07 -2.73526e-07 0)
(1.86554e-07 -2.79116e-07 0)
(1.87e-07 -2.84317e-07 0)
(0.285414 0.773648 0.25)
)


scaledInput
-1.33665 0 0 
-1.32325 0.513942 0 
-1.32013 0.443948 0 
-1.31919 0.374993 0 
-1.31859 0.290474 0 
-1.31745 0.213554 0 
-1.31597 0.139882 0 
-1.31418 0.070479 0 
-1.31213 0.00596628 0 
-1.30989 -0.0533892 0 
-1.30751 -0.107595 0 
-1.30503 -0.156848 0 
-1.30249 -0.201459 0 
-1.29992 -0.2418 0 
-1.29736 -0.279194 0 
-1.29479 -0.312477 0 
-1.29224 -0.342399 0 
-1.28976 -0.369455 0 
-1.28734 -0.393899 0 
-1.28497 -0.416164 0 
-1.2557 -0.397202 -2.77556e-17 

scaledResult
-1.23054
-0.68981
5.04781e-05

result
1.9704e-07
-3.66372e-07
5.04781e-05
inputFoam

21
(
(9.80132e-08 0 0)
(1.3335e-07 -5.25269e-08 0)
(1.53162e-07 -8.99558e-08 0)
(1.64798e-07 -1.18413e-07 0)
(1.71988e-07 -1.4236e-07 0)
(1.76558e-07 -1.61861e-07 0)
(1.79534e-07 -1.78391e-07 0)
(1.81551e-07 -1.92787e-07 0)
(1.82983e-07 -2.05534e-07 0)
(1.84052e-07 -2.16966e-07 0)
(1.84892e-07 -2.27317e-07 0)
(1.85586e-07 -2.36758e-07 0)
(1.86183e-07 -2.45418e-07 0)
(1.86715e-07 -2.53395e-07 0)
(1.87201e-07 -2.60812e-07 0)
(1.87644e-07 -2.67683e-07 0)
(1.88056e-07 -2.74051e-07 0)
(1.88451e-07 -2.79962e-07 0)
(1.88834e-07 -2.85469e-07 0)
(1.89207e-07 -2.90589e-07 0)
(0.302701 0.820508 0.25)
)


scaledInput
-1.3226 0 0 
-1.30996 0.441077 0 
-1.30729 0.370168 0 
-1.30671 0.301514 0 
-1.30641 0.218886 0 
-1.30553 0.144332 0 
-1.30437 0.0731646 0 
-1.30293 0.0062913 0 
-1.30125 -0.0557476 0 
-1.29939 -0.112735 0 
-1.29739 -0.16471 0 
-1.29528 -0.211887 0 
-1.29311 -0.254584 0 
-1.2909 -0.293172 0 
-1.28868 -0.328974 0 
-1.28643 -0.360803 0 
-1.28423 -0.389403 0 
-1.28207 -0.415251 0 
-1.27994 -0.438599 0 
-1.27784 -0.459833 0 
-1.22531 -0.314805 -5.55112e-17 

scaledResult
-1.22739
-0.724576
1.47665e-05

result
1.9809e-07
-3.72383e-07
1.47665e-05
inputFoam

21
(
(1.00198e-07 0 0)
(1.36234e-07 -5.56725e-08 0)
(1.56508e-07 -9.51419e-08 0)
(1.68449e-07 -1.24863e-07 0)
(1.75847e-07 -1.49438e-07 0)
(1.80535e-07 -1.69245e-07 0)
(1.83569e-07 -1.85879e-07 0)
(1.85601e-07 -2.00263e-07 0)
(1.87017e-07 -2.12936e-07 0)
(1.88051e-07 -2.24262e-07 0)
(1.88842e-07 -2.34493e-07 0)
(1.89477e-07 -2.43812e-07 0)
(1.9001e-07 -2.52353e-07 0)
(1.90474e-07 -2.60219e-07 0)
(1.90892e-07 -2.67523e-07 0)
(1.91266e-07 -2.74296e-07 0)
(1.91602e-07 -2.80578e-07 0)
(1.91928e-07 -2.8641e-07 0)
(1.92245e-07 -2.91847e-07 0)
(1.92555e-07 -2.96901e-07 0)
(0.319989 0.867369 0.25)
)


scaledInput
-1.30819 0 0 
-1.2956 0.371755 0 
-1.29286 0.299338 0 
-1.2922 0.230471 0 
-1.29183 0.149469 0 
-1.29099 0.0769453 0 
-1.28995 0.00801833 0 
-1.28869 -0.0565571 0 
-1.28725 -0.116333 0 
-1.28566 -0.171148 0 
-1.28395 -0.221074 0 
-1.28215 -0.266343 0 
-1.28029 -0.307281 0 
-1.27838 -0.344258 0 
-1.27646 -0.378542 0 
-1.27451 -0.409015 0 
-1.27261 -0.436395 0 
-1.27073 -0.461135 0 
-1.26887 -0.483481 0 
-1.26702 -0.503788 0 
-1.19491 -0.232404 1.11022e-16 

scaledResult
-1.22047
-0.758939
-7.85783e-05

result
2.00397e-07
-3.78326e-07
-7.85783e-05
inputFoam

21
(
(1.02423e-07 0 0)
(1.39186e-07 -5.87328e-08 0)
(1.59947e-07 -1.00263e-07 0)
(1.72235e-07 -1.31298e-07 0)
(1.79889e-07 -1.56537e-07 0)
(1.84731e-07 -1.76704e-07 0)
(1.87864e-07 -1.93479e-07 0)
(1.89951e-07 -2.07879e-07 0)
(1.91393e-07 -2.20497e-07 0)
(1.9243e-07 -2.31729e-07 0)
(1.93209e-07 -2.41849e-07 0)
(1.9382e-07 -2.51051e-07 0)
(1.94322e-07 -2.59476e-07 0)
(1.9475e-07 -2.67232e-07 0)
(1.95126e-07 -2.74418e-07 0)
(1.95458e-07 -2.81092e-07 0)
(1.95742e-07 -2.87286e-07 0)
(1.96019e-07 -2.93039e-07 0)
(1.96288e-07 -2.98405e-07 0)
(1.96553e-07 -3.03394e-07 0)
(0.337278 0.914232 0.25)
)


scaledInput
-1.29352 0 0 
-1.28089 0.304312 0 
-1.27803 0.229398 0 
-1.27716 0.1596 0 
-1.27656 0.0798487 0 
-1.27564 0.00888456 0 
-1.2746 -0.0581131 0 
-1.2734 -0.120585 0 
-1.27207 -0.178218 0 
-1.27063 -0.230932 0 
-1.26909 -0.278848 0 
-1.26749 -0.322228 0 
-1.26583 -0.361408 0 
-1.26415 -0.396764 0 
-1.26244 -0.429477 0 
-1.26071 -0.458561 0 
-1.25905 -0.484697 0 
-1.2574 -0.508306 0 
-1.25575 -0.529626 0 
-1.2541 -0.548994 0 
-1.16451 -0.150002 -2.77556e-17 

scaledResult
-1.21132
-0.791704
9.55059e-05

result
2.03446e-07
-3.83992e-07
9.55059e-05
inputFoam

21
(
(6.80449e-08 0 0)
(9.85297e-08 -2.56627e-08 0)
(1.17678e-07 -4.64163e-08 0)
(1.30478e-07 -6.55085e-08 0)
(1.39543e-07 -8.52139e-08 0)
(1.46304e-07 -1.03354e-07 0)
(1.51612e-07 -1.20109e-07 0)
(1.55956e-07 -1.35579e-07 0)
(1.59638e-07 -1.49821e-07 0)
(1.6284e-07 -1.62917e-07 0)
(1.65679e-07 -1.74958e-07 0)
(1.68234e-07 -1.86035e-07 0)
(1.70554e-07 -1.96236e-07 0)
(1.72679e-07 -2.05643e-07 0)
(1.74635e-07 -2.14388e-07 0)
(1.7644e-07 -2.22465e-07 0)
(1.78142e-07 -2.29927e-07 0)
(1.79714e-07 -2.3683e-07 0)
(1.81173e-07 -2.43233e-07 0)
(1.82532e-07 -2.49164e-07 0)
(0.142504 0.505281 0.25)
)


scaledInput
-1.52023 0 0 
-1.48342 1.0331 0 
-1.46032 0.964818 0 
-1.44307 0.884164 0 
-1.42899 0.779328 0 
-1.41616 0.678221 0 
-1.40417 0.580255 0 
-1.39289 0.487216 0 
-1.38225 0.400268 0 
-1.37221 0.319994 0 
-1.36275 0.246526 0 
-1.35386 0.17969 0 
-1.3455 0.119122 0 
-1.33765 0.0643506 0 
-1.33028 0.013945 0 
-1.32332 -0.0311385 0 
-1.31671 -0.0716984 0 
-1.31055 -0.108332 0 
-1.3048 -0.141407 0 
-1.29941 -0.171407 0 
-1.50699 -0.869093 0 

scaledResult
-1.20529
-0.537815
-0.00391876

result
2.05457e-07
-3.40088e-07
-0.00391876
inputFoam

21
(
(6.85334e-08 0 0)
(9.7136e-08 -3.10624e-08 0)
(1.14295e-07 -5.54885e-08 0)
(1.25319e-07 -7.68488e-08 0)
(1.32837e-07 -9.7912e-08 0)
(1.38288e-07 -1.16827e-07 0)
(1.42417e-07 -1.3402e-07 0)
(1.45702e-07 -1.49735e-07 0)
(1.48426e-07 -1.64113e-07 0)
(1.5076e-07 -1.77283e-07 0)
(1.52811e-07 -1.89363e-07 0)
(1.54646e-07 -2.00462e-07 0)
(1.5631e-07 -2.10677e-07 0)
(1.57833e-07 -2.20094e-07 0)
(1.59237e-07 -2.28844e-07 0)
(1.60534e-07 -2.36928e-07 0)
(1.61749e-07 -2.44401e-07 0)
(1.62877e-07 -2.51316e-07 0)
(1.6393e-07 -2.57732e-07 0)
(1.64917e-07 -2.63689e-07 0)
(0.156056 0.553333 0.25)
)


scaledInput
-1.51701 0 0 
-1.49037 0.914103 0 
-1.4749 0.840913 0 
-1.46357 0.75927 0 
-1.45432 0.654795 0 
-1.44547 0.555279 0 
-1.43704 0.459222 0 
-1.42893 0.368209 0 
-1.42115 0.283289 0 
-1.41368 0.204981 0 
-1.40654 0.133385 0 
-1.39973 0.0683129 0 
-1.39325 0.00939238 0 
-1.38709 -0.0438459 0 
-1.38125 -0.0928384 0 
-1.37569 -0.136587 0 
-1.37041 -0.175913 0 
-1.36544 -0.21141 0 
-1.36075 -0.243434 0 
-1.35633 -0.272541 0 
-1.48316 -0.784599 -5.55112e-17 

scaledResult
-1.2749
-0.62651
-0.00127208

result
1.82257e-07
-3.55426e-07
-0.00127208
inputFoam

21
(
(6.93951e-08 0 0)
(9.68634e-08 -3.57797e-08 0)
(1.12841e-07 -6.32603e-08 0)
(1.22765e-07 -8.6426e-08 0)
(1.29303e-07 -1.08445e-07 0)
(1.33868e-07 -1.27822e-07 0)
(1.37192e-07 -1.45198e-07 0)
(1.39744e-07 -1.60933e-07 0)
(1.41801e-07 -1.75242e-07 0)
(1.43528e-07 -1.88297e-07 0)
(1.45024e-07 -2.00245e-07 0)
(1.46353e-07 -2.11208e-07 0)
(1.47554e-07 -2.2129e-07 0)
(1.48653e-07 -2.30582e-07 0)
(1.49669e-07 -2.39217e-07 0)
(1.5061e-07 -2.47197e-07 0)
(1.515e-07 -2.54575e-07 0)
(1.52331e-07 -2.61404e-07 0)
(1.53111e-07 -2.67743e-07 0)
(1.53846e-07 -2.73623e-07 0)
(0.16961 0.601391 0.25)
)


scaledInput
-1.51132 0 0 
-1.49172 0.810144 0 
-1.48117 0.734768 0 
-1.47372 0.653793 0 
-1.46768 0.551498 0 
-1.46164 0.454943 0 
-1.45571 0.361964 0 
-1.44987 0.274072 0 
-1.44413 0.192201 0 
-1.43851 0.116795 0 
-1.43303 0.0479156 0 
-1.42772 -0.0146419 0 
-1.42259 -0.0712498 0 
-1.41766 -0.12237 0 
-1.41293 -0.169461 0 
-1.40837 -0.211451 0 
-1.40399 -0.249167 0 
-1.39982 -0.283194 0 
-1.39586 -0.313876 0 
-1.3921 -0.341708 0 
-1.45933 -0.700095 1.11022e-16 

scaledResult
-1.32
-0.678587
-0.000386357

result
1.67225e-07
-3.64431e-07
-0.000386357
inputFoam

21
(
(7.05341e-08 0 0)
(9.74157e-08 -4.00795e-08 0)
(1.12734e-07 -7.02737e-08 0)
(1.21994e-07 -9.5001e-08 0)
(1.27916e-07 -1.17831e-07 0)
(1.31893e-07 -1.37564e-07 0)
(1.34678e-07 -1.55053e-07 0)
(1.36737e-07 -1.70766e-07 0)
(1.38343e-07 -1.84981e-07 0)
(1.39658e-07 -1.9791e-07 0)
(1.40777e-07 -2.0972e-07 0)
(1.41761e-07 -2.20546e-07 0)
(1.42647e-07 -2.30499e-07 0)
(1.43458e-07 -2.39671e-07 0)
(1.44209e-07 -2.48194e-07 0)
(1.44907e-07 -2.56072e-07 0)
(1.45576e-07 -2.6336e-07 0)
(1.46203e-07 -2.70111e-07 0)
(1.46795e-07 -2.76382e-07 0)
(1.47355e-07 -2.82205e-07 0)
(0.183165 0.649453 0.25)
)


scaledInput
-1.50381 0 0 
-1.48897 0.715387 0 
-1.48164 0.638981 0 
-1.47678 0.559353 0 
-1.47292 0.459449 0 
-1.46886 0.366042 0 
-1.4647 0.276223 0 
-1.46044 0.191416 0 
-1.45613 0.112485 0 
-1.45179 0.039831 0 
-1.44748 -0.0265055 0 
-1.44322 -0.0867345 0 
-1.43904 -0.141223 0 
-1.43497 -0.19042 0 
-1.43101 -0.235766 0 
-1.42715 -0.276156 0 
-1.42339 -0.312424 0 
-1.4198 -0.345151 0 
-1.41636 -0.374661 0 
-1.41307 -0.401462 0 
-1.4355 -0.615584 5.55112e-17 

scaledResult
-1.34673
-0.724553
-2.67758e-05

result
1.58315e-07
-3.72379e-07
-2.67758e-05
inputFoam

21
(
(7.18724e-08 0 0)
(9.85603e-08 -4.40484e-08 0)
(1.13571e-07 -7.67153e-08 0)
(1.22468e-07 -1.02872e-07 0)
(1.28029e-07 -1.26409e-07 0)
(1.3164e-07 -1.46438e-07 0)
(1.34081e-07 -1.63994e-07 0)
(1.3582e-07 -1.79649e-07 0)
(1.37129e-07 -1.93741e-07 0)
(1.38169e-07 -2.06516e-07 0)
(1.39035e-07 -2.18162e-07 0)
(1.39785e-07 -2.28826e-07 0)
(1.40455e-07 -2.38624e-07 0)
(1.41068e-07 -2.47652e-07 0)
(1.41636e-07 -2.56046e-07 0)
(1.42164e-07 -2.63807e-07 0)
(1.42676e-07 -2.70987e-07 0)
(1.43157e-07 -2.77641e-07 0)
(1.43614e-07 -2.83824e-07 0)
(1.4405e-07 -2.89566e-07 0)
(0.196721 0.697518 0.25)
)


scaledInput
-1.49499 0 0 
-1.48327 0.627921 0 
-1.47803 0.551003 0 
-1.4749 0.472668 0 
-1.47249 0.375318 0 
-1.46979 0.285064 0 
-1.46683 0.198428 0 
-1.46367 0.116738 0 
-1.46034 0.0407859 0 
-1.4569 -0.0290691 0 
-1.45341 -0.0928094 0 
-1.44989 -0.150652 0 
-1.44639 -0.202959 0 
-1.44293 -0.250174 0 
-1.43952 -0.293769 0 
-1.43618 -0.332545 0 
-1.43289 -0.367341 0 
-1.42973 -0.398733 0 
-1.42668 -0.42703 0 
-1.42375 -0.452715 0 
-1.41166 -0.531067 0 

scaledResult
-1.36177
-0.760436
0.000770288

result
1.53303e-07
-3.78585e-07
0.000770288
inputFoam

21
(
(7.33505e-08 0 0)
(1.00098e-07 -4.77595e-08 0)
(1.15036e-07 -8.27505e-08 0)
(1.23772e-07 -1.10252e-07 0)
(1.29149e-07 -1.34455e-07 0)
(1.32567e-07 -1.54773e-07 0)
(1.34812e-07 -1.72395e-07 0)
(1.36358e-07 -1.87995e-07 0)
(1.3748e-07 -2.01968e-07 0)
(1.38342e-07 -2.14595e-07 0)
(1.39039e-07 -2.26083e-07 0)
(1.39632e-07 -2.36591e-07 0)
(1.40154e-07 -2.4624e-07 0)
(1.40629e-07 -2.55132e-07 0)
(1.41069e-07 -2.63398e-07 0)
(1.41476e-07 -2.71043e-07 0)
(1.41879e-07 -2.78122e-07 0)
(1.42258e-07 -2.84684e-07 0)
(1.42619e-07 -2.90787e-07 0)
(1.42966e-07 -2.96458e-07 0)
(0.210277 0.745586 0.25)
)


scaledInput
[...]
-2.01932
-0.00012614

result
6.30856e-08
-5.96274e-07
-0.00012614
inputFoam

21
(
(8.63553e-08 0 0)
(1.0426e-07 -1.45834e-07 0)
(1.15075e-07 -2.37521e-07 0)
(1.20725e-07 -2.99118e-07 0)
(1.23362e-07 -3.40531e-07 0)
(1.24053e-07 -3.70159e-07 0)
(1.23727e-07 -3.92085e-07 0)
(1.22821e-07 -4.09209e-07 0)
(1.21607e-07 -4.23176e-07 0)
(1.20246e-07 -4.34998e-07 0)
(1.18832e-07 -4.45305e-07 0)
(1.17418e-07 -4.54496e-07 0)
(1.16038e-07 -4.62828e-07 0)
(1.14708e-07 -4.70469e-07 0)
(1.13437e-07 -4.77364e-07 0)
(1.12207e-07 -4.83904e-07 0)
(1.11072e-07 -4.90027e-07 0)
(1.09996e-07 -4.95739e-07 0)
(1.08979e-07 -5.01105e-07 0)
(1.0802e-07 -5.06103e-07 0)
(0.24939 1.92211 0.25)
)


scaledInput
-1.39948 0 0 
-1.45488 -1.61519 0 
-1.47154 -1.64523 0 
-1.48183 -1.68865 0 
-1.49012 -1.72463 0 
-1.49753 -1.75645 0 
-1.50384 -1.7861 0 
-1.50936 -1.81308 0 
-1.51419 -1.83717 0 
-1.51843 -1.85836 0 
-1.52214 -1.87683 0 
-1.52539 -1.89281 0 
-1.52823 -1.90657 0 
-1.53071 -1.9184 0 
-1.53288 -1.92857 0 
-1.53482 -1.93718 0 
-1.53643 -1.94448 0 
-1.53784 -1.95068 0 
-1.53908 -1.95593 0 
-1.54017 -1.96041 0 
-1.31905 1.62224 0 

scaledResult
-1.55349
-1.98159
0.000133831

result
8.94032e-08
-5.89749e-07
0.000133831
inputFoam

21
(
(1.09832e-07 0 0)
(1.33194e-07 -1.45868e-07 0)
(1.47237e-07 -2.37421e-07 0)
(1.54635e-07 -2.98657e-07 0)
(1.58155e-07 -3.39663e-07 0)
(1.59174e-07 -3.6888e-07 0)
(1.58866e-07 -3.90373e-07 0)
(1.57799e-07 -4.07068e-07 0)
(1.56324e-07 -4.20621e-07 0)
(1.54649e-07 -4.32052e-07 0)
(1.52896e-07 -4.41994e-07 0)
(1.51137e-07 -4.50847e-07 0)
(1.49414e-07 -4.58866e-07 0)
(1.4775e-07 -4.66217e-07 0)
(1.46157e-07 -4.72842e-07 0)
(1.44614e-07 -4.79135e-07 0)
(1.43187e-07 -4.85034e-07 0)
(1.41835e-07 -4.9054e-07 0)
(1.40555e-07 -4.95719e-07 0)
(1.39347e-07 -5.00543e-07 0)
(0.320423 1.9203 0.25)
)


scaledInput
-1.24466 0 0 
-1.31074 -1.61593 0 
-1.33284 -1.64387 0 
-1.34709 -1.68357 0 
-1.35867 -1.71612 0 
-1.3691 -1.74478 0 
-1.37824 -1.77121 0 
-1.38641 -1.79508 0 
-1.39374 -1.81625 0 
-1.40033 -1.83478 0 
-1.40625 -1.85083 0 
-1.41157 -1.86463 0 
-1.41636 -1.87646 0 
-1.42067 -1.88656 0 
-1.42456 -1.89516 0 
-1.42811 -1.90241 0 
-1.43122 -1.90852 0 
-1.43404 -1.91368 0 
-1.43661 -1.91803 0 
-1.43895 -1.92169 0 
-1.19414 1.61905 -5.55112e-17 

scaledResult
-1.47334
-1.93341
0.000555799

result
1.16118e-07
-5.81418e-07
0.000555799
inputFoam

21
(
(1.32565e-07 0 0)
(1.61577e-07 -1.45921e-07 0)
(1.78989e-07 -2.37336e-07 0)
(1.88235e-07 -2.98151e-07 0)
(1.92718e-07 -3.38701e-07 0)
(1.94121e-07 -3.67418e-07 0)
(1.93893e-07 -3.88387e-07 0)
(1.9272e-07 -4.04562e-07 0)
(1.91035e-07 -4.17615e-07 0)
(1.89092e-07 -4.28574e-07 0)
(1.87041e-07 -4.38075e-07 0)
(1.84974e-07 -4.46516e-07 0)
(1.82941e-07 -4.54154e-07 0)
(1.80974e-07 -4.61153e-07 0)
(1.79087e-07 -4.67458e-07 0)
(1.77256e-07 -4.73456e-07 0)
(1.75554e-07 -4.79083e-07 0)
(1.73942e-07 -4.8434e-07 0)
(1.72417e-07 -4.89291e-07 0)
(1.70975e-07 -4.93894e-07 0)
(0.391293 1.91805 0.25)
)


scaledInput
-1.09474 0 0 
-1.16935 -1.61711 0 
-1.19591 -1.64271 0 
-1.21359 -1.678 0 
-1.22809 -1.70668 0 
-1.24131 -1.73144 0 
-1.25305 -1.75393 0 
-1.26367 -1.77401 0 
-1.27331 -1.79165 0 
-1.28209 -1.80693 0 
-1.29008 -1.82004 0 
-1.29735 -1.8312 0 
-1.30398 -1.84066 0 
-1.31002 -1.84865 0 
-1.31554 -1.85539 0 
-1.32064 -1.861 0 
-1.32519 -1.86567 0 
-1.32937 -1.86957 0 
-1.33321 -1.8728 0 
-1.33675 -1.8754 0 
-1.06953 1.6151 5.55112e-17 

scaledResult
-1.38879
-1.87859
0.00139411

result
1.44297e-07
-5.71938e-07
0.00139411
inputFoam

21
(
(1.54502e-07 0 0)
(1.89316e-07 -1.4601e-07 0)
(2.10224e-07 -2.37301e-07 0)
(2.21427e-07 -2.97654e-07 0)
(2.26968e-07 -3.37688e-07 0)
(2.28833e-07 -3.6585e-07 0)
(2.28757e-07 -3.86233e-07 0)
(2.27544e-07 -4.01824e-07 0)
(2.25707e-07 -4.14312e-07 0)
(2.23547e-07 -4.24734e-07 0)
(2.21246e-07 -4.3373e-07 0)
(2.18911e-07 -4.41699e-07 0)
(2.16606e-07 -4.48898e-07 0)
(2.14368e-07 -4.55488e-07 0)
(2.12217e-07 -4.61413e-07 0)
(2.10127e-07 -4.67061e-07 0)
(2.08174e-07 -4.72367e-07 0)
(2.06327e-07 -4.7733e-07 0)
(2.04579e-07 -4.82009e-07 0)
(2.02924e-07 -4.86353e-07 0)
(0.461967 1.91539 0.25)
)


scaledInput
-0.950073 0 0 
-1.03116 -1.61906 0 
-1.0612 -1.64223 0 
-1.0817 -1.67252 0 
-1.09869 -1.69675 0 
-1.11438 -1.71712 0 
-1.12844 -1.73519 0 
-1.14127 -1.751 0 
-1.15302 -1.76461 0 
-1.1638 -1.77619 0 
-1.1737 -1.78591 0 
-1.18279 -1.79401 0 
-1.19114 -1.80072 0 
-1.19881 -1.80624 0 
-1.20586 -1.81074 0 
-1.21241 -1.81438 0 
-1.21833 -1.81732 0 
-1.22379 -1.81968 0 
-1.22884 -1.82156 0 
-1.23351 -1.82289 0 
-0.945256 1.61041 -1.11022e-16 

scaledResult
-1.3042
-1.81511
-0.00023716

result
1.7249e-07
-5.60962e-07
-0.00023716
inputFoam

21
(
(1.75553e-07 0 0)
(2.16352e-07 -1.46077e-07 0)
(2.40839e-07 -2.37241e-07 0)
(2.54094e-07 -2.97124e-07 0)
(2.60795e-07 -3.36607e-07 0)
(2.63207e-07 -3.64174e-07 0)
(2.63367e-07 -3.83936e-07 0)
(2.62191e-07 -3.98906e-07 0)
(2.60269e-07 -4.10789e-07 0)
(2.57952e-07 -4.20632e-07 0)
(2.55453e-07 -4.2908e-07 0)
(2.52898e-07 -4.36535e-07 0)
(2.50363e-07 -4.43251e-07 0)
(2.47893e-07 -4.49391e-07 0)
(2.45512e-07 -4.54871e-07 0)
(2.43193e-07 -4.60113e-07 0)
(2.41017e-07 -4.65047e-07 0)
(2.38961e-07 -4.69669e-07 0)
(2.37013e-07 -4.74036e-07 0)
(2.35167e-07 -4.78096e-07 0)
(0.532411 1.91232 0.25)
)


scaledInput
-0.811252 0 0 
-0.896477 -1.62053 0 
-0.929177 -1.64141 0 
-0.951904 -1.66668 0 
-0.970891 -1.68615 0 
-0.988676 -1.70183 0 
-1.00473 -1.71521 0 
-1.01949 -1.72647 0 
-1.03311 -1.73578 0 
-1.04569 -1.74335 0 
-1.05732 -1.74939 0 
-1.06807 -1.75415 0 
-1.07799 -1.75781 0 
-1.08716 -1.76059 0 
-1.09563 -1.76242 0 
-1.10353 -1.76373 0 
-1.11074 -1.76461 0 
-1.1174 -1.76517 0 
-1.12359 -1.76546 0 
-1.12933 -1.7654 0 
-0.821389 1.60502 5.55112e-17 

scaledResult
-1.21661
-1.7411
-0.000924451

result
2.01684e-07
-5.48163e-07
-0.000924451
inputFoam

21
(
(1.95641e-07 0 0)
(2.42674e-07 -1.46177e-07 0)
(2.70783e-07 -2.37236e-07 0)
(2.86161e-07 -2.96612e-07 0)
(2.94106e-07 -3.35512e-07 0)
(2.97145e-07 -3.62458e-07 0)
(2.97626e-07 -3.81568e-07 0)
(2.9657e-07 -3.95881e-07 0)
(2.9464e-07 -4.07123e-07 0)
(2.92236e-07 -4.1635e-07 0)
(2.89601e-07 -4.24211e-07 0)
(2.86883e-07 -4.31113e-07 0)
(2.84169e-07 -4.37309e-07 0)
(2.81513e-07 -4.42962e-07 0)
(2.78944e-07 -4.47944e-07 0)
(2.76435e-07 -4.52732e-07 0)
(2.74078e-07 -4.57253e-07 0)
(2.71846e-07 -4.61495e-07 0)
(2.69727e-07 -4.65515e-07 0)
(2.67715e-07 -4.69265e-07 0)
(0.602595 1.90888 0.25)
)


scaledInput
-0.678776 0 0 
-0.765353 -1.62276 0 
-0.800041 -1.64135 0 
-0.824489 -1.66105 0 
-0.845036 -1.67541 0 
-0.864573 -1.68617 0 
-0.882281 -1.6946 0 
-0.898654 -1.70104 0 
-0.913861 -1.70577 0 
-0.927998 -1.70906 0 
-0.941138 -1.71116 0 
-0.953344 -1.71229 0 
-0.964676 -1.71266 0 
-0.975192 -1.71245 0 
-0.98495 -1.71125 0 
-0.994083 -1.70992 0 
-1.00243 -1.70849 0 
-1.01019 -1.70701 0 
-1.01742 -1.7055 0 
-1.02416 -1.70391 0 
-0.697979 1.59896 5.55112e-17 

scaledResult
-1.12821
-1.6611
-0.00149997

result
2.31149e-07
-5.34329e-07
-0.00149997
inputFoam

21
(
(2.14784e-07 0 0)
(2.68338e-07 -1.46256e-07 0)
(3.00148e-07 -2.37202e-07 0)
(3.17731e-07 -2.9607e-07 0)
(3.26997e-07 -3.34375e-07 0)
(3.30724e-07 -3.6069e-07 0)
(3.31591e-07 -3.79138e-07 0)
(3.30717e-07 -3.92782e-07 0)
(3.28838e-07 -4.03366e-07 0)
(3.26401e-07 -4.11956e-07 0)
(3.23681e-07 -4.19208e-07 0)
(3.20845e-07 -4.25532e-07 0)
(3.17994e-07 -4.31182e-07 0)
(3.15189e-07 -4.3632e-07 0)
(3.12466e-07 -4.40779e-07 0)
(3.09801e-07 -4.45088e-07 0)
(3.07297e-07 -4.49167e-07 0)
(3.0492e-07 -4.53004e-07 0)
(3.02657e-07 -4.56651e-07 0)
(3.00503e-07 -4.60061e-07 0)
(0.672489 1.90507 0.25)
)


scaledInput
-0.552536 0 0 
-0.637507 -1.62448 0 
-0.6734 -1.64088 0 
-0.699052 -1.65508 0 
-0.720773 -1.66426 0 
-0.741784 -1.67004 0 
-0.760883 -1.67346 0 
-0.778632 -1.67499 0 
-0.795211 -1.67502 0 
-0.810709 -1.67388 0 
-0.825189 -1.67186 0 
-0.838702 -1.6692 0 
-0.851301 -1.66611 0 
-0.863039 -1.66273 0 
-0.873971 -1.65833 0 
-0.884222 -1.65418 0 
-0.893609 -1.65027 0 
-0.902369 -1.64658 0 
-0.910555 -1.64313 0 
-0.918212 -1.63983 0 
-0.575078 1.59226 -5.55112e-17 

scaledResult
-1.03936
-1.57766
-0.000881174

result
2.60762e-07
-5.19901e-07
-0.000881174
inputFoam

21
(
(1.25272e-08 0 0)
(1.50148e-08 -1.50915e-07 0)
(1.65527e-08 -2.45496e-07 0)
(1.73322e-08 -3.09159e-07 0)
(1.76683e-08 -3.52035e-07 0)
(1.77125e-08 -3.82692e-07 0)
(1.7619e-08 -4.05413e-07 0)
(1.74466e-08 -4.23198e-07 0)
(1.7233e-08 -4.37732e-07 0)
(1.70002e-08 -4.50051e-07 0)
(1.67612e-08 -4.60799e-07 0)
(1.65237e-08 -4.70384e-07 0)
(1.62923e-08 -4.7907e-07 0)
(1.60694e-08 -4.87029e-07 0)
(1.58566e-08 -4.94248e-07 0)
(1.56502e-08 -5.01072e-07 0)
(1.54595e-08 -5.07441e-07 0)
(1.52792e-08 -5.13369e-07 0)
(1.51092e-08 -5.18923e-07 0)
(1.49492e-08 -5.24049e-07 0)
(0.0354704 1.97494 0.25)
)


scaledInput
-1.88635 0 0 
-1.89946 -1.72716 0 
-1.89643 -1.75415 0 
-1.89264 -1.79923 0 
-1.88944 -1.83745 0 
-1.88639 -1.87082 0 
-1.8831 -1.90207 0 
-1.87973 -1.93068 0 
-1.87632 -1.95631 0 
-1.87287 -1.97888 0 
-1.86942 -1.99852 0 
-1.86597 -2.01546 0 
-1.86257 -2.02998 0 
-1.85922 -2.04239 0 
-1.85594 -2.05328 0 
-1.85274 -2.06234 0 
-1.84964 -2.06986 0 
-1.84663 -2.07613 0 
-1.84371 -2.08131 0 
-1.84091 -2.08536 0 
-1.6952 1.71512 -2.77556e-17 

scaledResult
-1.7997
-2.09907
-0.000116019

result
7.34277e-09
-6.10064e-07
-0.000116019
inputFoam

21
(
(3.75039e-08 0 0)
(4.49681e-08 -1.50983e-07 0)
(4.95452e-08 -2.45523e-07 0)
(5.18783e-08 -3.09068e-07 0)
(5.28991e-08 -3.51826e-07 0)
(5.3064e-08 -3.82363e-07 0)
(5.28091e-08 -4.0498e-07 0)
(5.23118e-08 -4.22665e-07 0)
(5.16861e-08 -4.37103e-07 0)
(5.09993e-08 -4.49328e-07 0)
(5.02918e-08 -4.59986e-07 0)
(4.95874e-08 -4.69487e-07 0)
(4.89003e-08 -4.78094e-07 0)
(4.82383e-08 -4.8598e-07 0)
(4.76056e-08 -4.93119e-07 0)
(4.69925e-08 -4.99873e-07 0)
(4.64232e-08 -5.06181e-07 0)
(4.58849e-08 -5.12053e-07 0)
(4.5377e-08 -5.17558e-07 0)
(4.48988e-08 -5.22656e-07 0)
(0.106405 1.97479 0.25)
)


scaledInput
-1.72164 0 0 
-1.75025 -1.72865 0 
-1.75414 -1.75453 0 
-1.75538 -1.79823 0 
-1.75633 -1.8354 0 
-1.75712 -1.86781 0 
-1.75732 -1.8983 0 
-1.75718 -1.9262 0 
-1.75678 -1.95116 0 
-1.75615 -1.97309 0 
-1.75534 -1.99214 0 
-1.75436 -2.00853 0 
-1.75327 -2.02256 0 
-1.75208 -2.03452 0 
-1.75083 -2.04494 0 
-1.74954 -2.0536 0 
-1.74821 -2.06079 0 
-1.74685 -2.06676 0 
-1.74548 -2.0717 0 
-1.74413 -2.07566 0 
-1.57047 1.71486 0 

scaledResult
-1.72
-2.08879
3.47683e-05

result
3.39079e-08
-6.08287e-07
3.47683e-05
inputFoam

21
(
(6.21583e-08 0 0)
(7.46837e-08 -1.51012e-07 0)
(8.23032e-08 -2.45498e-07 0)
(8.62279e-08 -3.08852e-07 0)
(8.7984e-08 -3.51378e-07 0)
(8.83278e-08 -3.81722e-07 0)
(8.7952e-08 -4.04142e-07 0)
(8.716e-08 -4.21627e-07 0)
(8.61455e-08 -4.35867e-07 0)
(8.50236e-08 -4.47903e-07 0)
(8.38632e-08 -4.58382e-07 0)
(8.27056e-08 -4.67715e-07 0)
(8.15748e-08 -4.76166e-07 0)
(8.04846e-08 -4.83907e-07 0)
(7.94422e-08 -4.90896e-07 0)
(7.84328e-08 -4.97516e-07 0)
(7.75012e-08 -5.03705e-07 0)
(7.6618e-08 -5.09472e-07 0)
(7.57833e-08 -5.14883e-07 0)
(7.49961e-08 -5.1991e-07 0)
(0.17732 1.97448 0.25)
)


scaledInput
-1.55905 0 0 
-1.60222 -1.7293 0 
-1.61287 -1.75419 0 
-1.6189 -1.79585 0 
-1.62378 -1.83101 0 
-1.62817 -1.86196 0 
-1.63171 -1.89101 0 
-1.6347 -1.91747 0 
-1.63723 -1.94105 0 
-1.63935 -1.96168 0 
-1.64112 -1.97954 0 
-1.64257 -1.99485 0 
-1.64375 -2.00792 0 
-1.64469 -2.01901 0 
-1.64543 -2.02852 0 
-1.64602 -2.03642 0 
-1.6464 -2.04296 0 
-1.64666 -2.0484 0 
-1.64681 -2.05288 0 
-1.64688 -2.05654 0 
-1.44577 1.71432 -2.77556e-17 

scaledResult
-1.64311
-2.06768
0.000135634

result
5.95336e-08
-6.04635e-07
0.000135634
inputFoam

21
(
(8.62745e-08 0 0)
(1.04035e-07 -1.51019e-07 0)
(1.14766e-07 -2.45439e-07 0)
(1.2035e-07 -3.08549e-07 0)
(1.22905e-07 -3.50782e-07 0)
(1.23492e-07 -3.80831e-07 0)
(1.23046e-07 -4.02939e-07 0)
(1.22002e-07 -4.2011e-07 0)
(1.20637e-07 -4.34047e-07 0)
(1.19114e-07 -4.45795e-07 0)
(1.17531e-07 -4.56005e-07 0)
(1.15947e-07 -4.65088e-07 0)
(1.14397e-07 -4.73307e-07 0)
(1.129e-07 -4.80835e-07 0)
(1.11466e-07 -4.87615e-07 0)
(1.10079e-07 -4.94047e-07 0)
(1.08798e-07 -5.00065e-07 0)
(1.07583e-07 -5.05678e-07 0)
(1.06432e-07 -5.1095e-07 0)
(1.05346e-07 -5.15859e-07 0)
(0.248202 1.97403 0.25)
)


scaledInput
-1.40001 0 0 
-1.456 -1.72945 0 
-1.47288 -1.75338 0 
-1.48332 -1.79252 0 
-1.49185 -1.82516 0 
-1.49958 -1.85383 0 
-1.50627 -1.88054 0 
-1.51223 -1.90472 0 
-1.51756 -1.92615 0 
-1.52232 -1.94481 0 
-1.52657 -1.96087 0 
-1.53036 -1.97457 0 
-1.53373 -1.98619 0 
-1.53674 -1.996 0 
-1.53941 -2.00429 0 
-1.54182 -2.01112 0 
-1.54387 -2.01675 0 
-1.54571 -2.0214 0 
-1.54735 -2.0252 0 
-1.54881 -2.02833 0 
-1.32114 1.71352 -8.32667e-17 

scaledResult
-1.56923
-2.03136
0.000443481

result
8.41565e-08
-5.98356e-07
0.000443481
inputFoam

21
(
(1.09736e-07 0 0)
(1.32939e-07 -1.51027e-07 0)
(1.46902e-07 -2.45373e-07 0)
(1.54233e-07 -3.0819e-07 0)
(1.57659e-07 -3.50071e-07 0)
(1.58549e-07 -3.79741e-07 0)
(1.5809e-07 -4.01442e-07 0)
(1.56849e-07 -4.18206e-07 0)
(1.55182e-07 -4.31748e-07 0)
(1.53301e-07 -4.43122e-07 0)
(1.51333e-07 -4.52981e-07 0)
(1.49357e-07 -4.61738e-07 0)
(1.47416e-07 -4.69654e-07 0)
(1.45538e-07 -4.76901e-07 0)
(1.43738e-07 -4.83425e-07 0)
(1.41993e-07 -4.89619e-07 0)
(1.40375e-07 -4.9542e-07 0)
(1.3884e-07 -5.00833e-07 0)
(1.37386e-07 -5.05923e-07 0)
(1.36013e-07 -5.10658e-07 0)
(0.31904 1.97343 0.25)
)


scaledInput
-1.24529 0 0 
-1.31201 -1.72964 0 
-1.33429 -1.75248 0 
-1.34869 -1.78856 0 
-1.36054 -1.81819 0 
-1.37139 -1.84389 0 
-1.38102 -1.86752 0 
-1.38975 -1.88871 0 
-1.39771 -1.90733 0 
-1.40496 -1.92341 0 
-1.41156 -1.93712 0 
-1.41758 -1.94871 0 
-1.42306 -1.95844 0 
-1.42804 -1.96656 0 
-1.43257 -1.97334 0 
-1.43674 -1.97884 0 
-1.44043 -1.98331 0 
-1.44381 -1.98692 0 
-1.44689 -1.98983 0 
-1.44972 -1.99212 0 
-1.19658 1.71247 0 

scaledResult
-1.49094
-1.98618
0.000891554

result
1.1025e-07
-5.90543e-07
0.000891554
inputFoam

21
(
(1.3249e-07 0 0)
(1.61317e-07 -1.51081e-07 0)
(1.7865e-07 -2.45368e-07 0)
(1.8783e-07 -3.0783e-07 0)
(1.92211e-07 -3.49305e-07 0)
(1.93468e-07 -3.78524e-07 0)
(1.93064e-07 -3.99735e-07 0)
(1.91687e-07 -4.16007e-07 0)
(1.89774e-07 -4.29071e-07 0)
(1.87586e-07 -4.39991e-07 0)
(1.8528e-07 -4.49424e-07 0)
(1.82953e-07 -4.57782e-07 0)
(1.8066e-07 -4.65328e-07 0)
(1.78435e-07 -4.72232e-07 0)
(1.76296e-07 -4.78444e-07 0)
(1.74221e-07 -4.84351e-07 0)
(1.72284e-07 -4.89887e-07 0)
(1.70449e-07 -4.95056e-07 0)
(1.6871e-07 -4.99921e-07 0)
(1.67065e-07 -5.0444e-07 0)
(0.389822 1.97268 0.25)
)


scaledInput
-1.09524 0 0 
-1.17064 -1.73081 0 
-1.19737 -1.7524 0 
-1.21519 -1.78459 0 
-1.23 -1.81068 0 
-1.2437 -1.83278 0 
-1.25601 -1.85267 0 
-1.2673 -1.87023 0 
-1.27769 -1.88542 0 
-1.28726 -1.89834 0 
-1.29607 -1.90918 0 
-1.30417 -1.91817 0 
-1.31163 -1.92556 0 
-1.31848 -1.93159 0 
-1.32478 -1.93654 0 
-1.33063 -1.94043 0 
-1.3359 -1.94346 0 
-1.34076 -1.94581 0 
-1.34524 -1.9476 0 
-1.34938 -1.94882 0 
-1.07211 1.71116 1.11022e-16 

scaledResult
-1.40997
-1.93444
0.0014662

result
1.37239e-07
-5.81596e-07
0.0014662
inputFoam

21
(
(1.54448e-07 0 0)
(1.89062e-07 -1.51159e-07 0)
(2.09881e-07 -2.45407e-07 0)
(2.21014e-07 -3.07492e-07 0)
(2.26448e-07 -3.48513e-07 0)
(2.28154e-07 -3.77225e-07 0)
(2.27883e-07 -3.9789e-07 0)
(2.26442e-07 -4.1361e-07 0)
(2.24348e-07 -4.26136e-07 0)
(2.21911e-07 -4.3654e-07 0)
(2.1932e-07 -4.45486e-07 0)
(2.16688e-07 -4.53387e-07 0)
(2.14084e-07 -4.60507e-07 0)
(2.1155e-07 -4.67013e-07 0)
(2.09108e-07 -4.7285e-07 0)
(2.06733e-07 -4.78413e-07 0)
(2.04507e-07 -4.83634e-07 0)
(2.02398e-07 -4.88514e-07 0)
(2.004e-07 -4.93114e-07 0)
(1.98508e-07 -4.97383e-07 0)
(0.460535 1.9718 0.25)
)


scaledInput
-0.950428 0 0 
-1.03243 -1.73254 0 
-1.06268 -1.75294 0 
-1.08334 -1.78088 0 
-1.10065 -1.80291 0 
-1.11686 -1.82093 0 
-1.13156 -1.83662 0 
-1.14514 -1.85008 0 
-1.15773 -1.86139 0 
-1.16942 -1.87071 0 
-1.18025 -1.87825 0 
-1.1903 -1.88424 0 
-1.19959 -1.88893 0 
-1.20819 -1.89252 0 
-1.21615 -1.89523 0 
-1.22358 -1.89715 0 
-1.23034 -1.89845 0 
-1.2366 -1.89926 0 
-1.2424 -1.8997 0 
-1.24778 -1.89969 0 
-0.947773 1.70961 0 

scaledResult
-1.32763
-1.87349
-5.5526e-05

result
1.64681e-07
-5.71057e-07
-5.5526e-05
inputFoam

21
(
(1.75493e-07 0 0)
(2.16112e-07 -1.5122e-07 0)
(2.40503e-07 -2.45437e-07 0)
(2.53691e-07 -3.07129e-07 0)
(2.60286e-07 -3.47641e-07 0)
(2.62538e-07 -3.75827e-07 0)
(2.62497e-07 -3.95921e-07 0)
(2.61084e-07 -4.11058e-07 0)
(2.58892e-07 -4.23009e-07 0)
(2.56281e-07 -4.32859e-07 0)
(2.5347e-07 -4.41277e-07 0)
(2.50593e-07 -4.4868e-07 0)
(2.47732e-07 -4.55331e-07 0)
(2.44935e-07 -4.61399e-07 0)
(2.42232e-07 -4.66795e-07 0)
(2.39593e-07 -4.71956e-07 0)
(2.37094e-07 -4.7681e-07 0)
(2.3473e-07 -4.81355e-07 0)
(2.32488e-07 -4.85649e-07 0)
(2.30364e-07 -4.89644e-07 0)
(0.53117 1.97079 0.25)
)


scaledInput
-0.811649 0 0 
-0.897673 -1.73388 0 
-0.930626 -1.75335 0 
-0.953506 -1.77688 0 
-0.972814 -1.79436 0 
-0.991124 -1.80817 0 
-1.00784 -1.81948 0 
-1.02338 -1.82862 0 
-1.03789 -1.8358 0 
-1.05143 -1.84124 0 
-1.06407 -1.84519 0 
-1.07584 -1.84791 0 
-1.08681 -1.84961 0 
-1.09701 -1.85049 0 
-1.10649 -1.8505 0 
-1.11539 -1.85007 0 
-1.12359 -1.84931 0 
-1.1312 -1.84832 0 
-1.13827 -1.84718 0 
-1.14485 -1.8458 0 
-0.823571 1.70783 0 

scaledResult
-1.24344
-1.80159
-0.000913557

result
1.92742e-07
-5.58623e-07
-0.000913557
inputFoam

21
(
(1.95578e-07 0 0)
(2.42496e-07 -1.51297e-07 0)
(2.70526e-07 -2.45514e-07 0)
(2.85849e-07 -3.06819e-07 0)
(2.9369e-07 -3.46829e-07 0)
(2.96553e-07 -3.74443e-07 0)
(2.96818e-07 -3.93927e-07 0)
(2.95505e-07 -4.08443e-07 0)
(2.93284e-07 -4.19781e-07 0)
(2.90562e-07 -4.29039e-07 0)
(2.87588e-07 -4.36892e-07 0)
(2.84519e-07 -4.43758e-07 0)
(2.81448e-07 -4.49903e-07 0)
(2.78433e-07 -4.55495e-07 0)
(2.75509e-07 -4.60403e-07 0)
(2.72647e-07 -4.65117e-07 0)
(2.69938e-07 -4.69564e-07 0)
(2.67368e-07 -4.73736e-07 0)
(2.64925e-07 -4.77687e-07 0)
(2.62604e-07 -4.81375e-07 0)
(0.601716 1.96965 0.25)
)


scaledInput
-0.679193 0 0 
-0.766243 -1.73559 0 
-0.80115 -1.7544 0 
-0.825731 -1.77346 0 
-0.846608 -1.78639 0 
-0.866739 -1.79554 0 
-0.885171 -1.80213 0 
-0.902395 -1.80664 0 
-0.918562 -1.80938 0 
-0.933745 -1.81066 0 
-0.947986 -1.81075 0 
-0.961324 -1.80991 0 
-0.973797 -1.80836 0 
-0.985449 -1.80628 0 
-0.996322 -1.80328 0 
-1.00656 -1.80021 0 
-1.01599 -1.79714 0 
-1.02479 -1.7941 0 
-1.03301 -1.79115 0 
-1.04067 -1.78823 0 
-0.699525 1.70582 5.55112e-17 

scaledResult
-1.15753
-1.72532
-0.00110133

result
2.21375e-07
-5.45435e-07
-0.00110133
inputFoam

21
(
(2.14797e-07 0 0)
(2.6832e-07 -1.51358e-07 0)
(3.00093e-07 -2.45553e-07 0)
(3.17639e-07 -3.06433e-07 0)
(3.26806e-07 -3.45937e-07 0)
(3.30344e-07 -3.7297e-07 0)
(3.30981e-07 -3.91837e-07 0)
(3.29833e-07 -4.05725e-07 0)
(3.27642e-07 -4.1644e-07 0)
(3.24863e-07 -4.25091e-07 0)
(3.21779e-07 -4.3236e-07 0)
(3.18564e-07 -4.38669e-07 0)
(3.15326e-07 -4.44286e-07 0)
(3.12133e-07 -4.49379e-07 0)
(3.09024e-07 -4.53787e-07 0)
(3.05976e-07 -4.58039e-07 0)
(3.03092e-07 -4.62058e-07 0)
(3.00346e-07 -4.65833e-07 0)
(2.97728e-07 -4.69417e-07 0)
(2.95234e-07 -4.72763e-07 0)
(0.672163 1.96839 0.25)
)


scaledInput
-0.552452 0 0 
-0.637596 -1.73693 0 
-0.673636 -1.75493 0 
-0.699415 -1.76921 0 
-0.721496 -1.77765 0 
-0.743174 -1.7821 0 
-0.763064 -1.78395 0 
-0.781738 -1.78379 0 
-0.799358 -1.78203 0 
-0.815988 -1.77905 0 
-0.83166 -1.77515 0 
-0.846401 -1.77062 0 
-0.860242 -1.76568 0 
-0.873216 -1.76049 0 
-0.885366 -1.75441 0 
-0.896817 -1.74861 0 
-0.907385 -1.74309 0 
-0.917281 -1.73787 0 
-0.926552 -1.73296 0 
-0.935239 -1.72826 0 
-0.575652 1.70361 5.55112e-17 

scaledResult
-1.07129
-1.64473
-0.000466342

result
2.5012e-07
-5.31499e-07
-0.000466342
BC correction loop took 104 iterations
    100, 2.65216e-06, 1.81563e-06, 0, 0
    200, 4.3978e-09, 1.19858e-08, 0, 0
    The relative residual has converged
    220, 9.59397e-10, 0, 0, 0
Max epsilonEq = 1.16083e-06
Max sigmaEq (von Mises stress) = 267884
ExecutionTime = 0.34 s  ClockTime = 0 s

The momentum equation converged in all time-steps


End

