/*---------------------------------------------------------------------------*\
| =========                 |                                                 |
| \\      /  F ield         | foam-extend: Open Source CFD                    |
|  \\    /   O peration     | Version:     4.1                                |
|   \\  /    A nd           | Web:         http://www.foam-extend.org         |
|    \\/     M anipulation  | For copyright notice see file Copyright         |
\*---------------------------------------------------------------------------*/
Build  : 4.1-70b064d0f326
Exec   : solids4Foam
Date   : Dec 05 2022
Time   : 12:23:31
Host   : "Levie-Laptop"
PID    : 9685
CtrlDict : "/home/scottlevie/foam/scottlevie-4.1/solids4foam/tutorials/solidsML/plateHoleML/residual_trial/quasi_static/mesh10/plateHole_ML/system/controlDict"
Case   : /home/scottlevie/foam/scottlevie-4.1/solids4foam/tutorials/solidsML/plateHoleML/residual_trial/quasi_static/mesh10/plateHole_ML
nProcs : 1
sigFpe : Enabling floating point exception trapping (FOAM_SIGFPE).
allowSystemOperations : Disallowing user-supplied system call operations

// * * * * * * * * * * * * * * * * * * * * * * * * * * * * * * * * * * * * * //
Create time

/*---------------------------------------------------------------------------*\
|    For further information on the solids4Foam toolbox implementations,      |
|    please see the following publications:                                   |
|                                                                             |
|    P. Cardiff, A Karac, P. De Jaeger, H. Jasak, J. Nagy, A. Ivankovic,      |
|    Z. Tukovic: An open-source finite volume toolbox for solid mechanics and |
|    fluid-solid interaction simulations. arXiv:1808.10736v2, 2018, available |
|    at https://arxiv.org/abs/1808.10736.                                     |
|                                                                             |
|    Z. Tukovic, A. Karac, P. Cardiff, H. Jasak, A. Ivankovic: OpenFOAM       |
|    finite volume solver for fluid-solid interaction.  Transactions of       |
|    Famena, 42 (3), pp. 1-31, 2018, 10.21278/TOF.42301.                      |
\*---------------------------------------------------------------------------*/

Selecting physicsModel solidModel
Selecting solidModel linearGeometryTotalDisplacementML
Selecting dynamicFvMesh staticFvMesh
Symmetry boundary condition with non-orthogonal correction
Creating solidTraction boundary condition
    traction is time-varying
Symmetry boundary condition with non-orthogonal correction
Creating solidTraction boundary condition
Creating solidTraction boundary condition
    under-relaxation method: fixed
Creating residual.dat
Creating iterationTime.dat
Creating the mechanicalModel
Selecting mechanical law linearElastic
Creating BCloopCorr.dat
Creating forceDisp1 function object.
Creating pointDisp function object
    region = region0
    distance from specified point is 0
Time = 1

Evolving solid solver
Solving the momentum equation for D
setCellDisplacements: reading cellDisplacements
(0.3092700185820456 0 0)
    Corr, res, relRes, matRes, iters

1000
(
(0.3092700185820456 0 0)
(0.3120546487599931 0 0)
(0.3169466288723093 0 0)
(0.3235470588428389 0 0)
(0.3315621560559813 0 0)
(0.3407517253325872 0 0)
(0.350892112211233 0 0)
(0.3617188910815309 0 0)
(0.3727652702459748 0 0)
(0.3829116249408868 0 0)
(0.2818524643595285 0 0)
(0.2842987200942289 0 0)
(0.2885839145678538 0 0)
(0.2943279184140977 0 0)
(0.3012218319007681 0 0)
(0.3089776383423468 0 0)
(0.3172981838004006 0 0)
(0.3258496764676919 0 0)
(0.3342234312365167 0 0)
(0.3419174829366795 0 0)
(0.2526399253512989 0 0)
(0.2547544530201111 0 0)
(0.2584344464664341 0 0)
(0.2633293226388023 0 0)
(0.2691429196236228 0 0)
(0.2755995014716796 0 0)
(0.2824325902383251 0 0)
(0.2893872013694933 0 0)
(0.2962276549225372 0 0)
(0.302761347182418 0 0)
(0.2218941100971845 0 0)
(0.223677137532402 0 0)
(0.2267698863805164 0 0)
(0.2308645757397415 0 0)
(0.2356984297618622 0 0)
(0.2410354731273774 0 0)
(0.2466671371295553 0 0)
(0.2524206010709381 0 0)
(0.2581647166150696 0 0)
(0.2638151220100173 0 0)
(0.1898419578554698 0 0)
(0.1913047882448513 0 0)
(0.193846052047551 0 0)
(0.1972048971057093 0 0)
(0.2011595147724244 0 0)
(0.2055200567740445 0 0)
(0.2101327911891937 0 0)
(0.2148837603517153 0 0)
(0.2196963985321354 0 0)
(0.2245279162630489 0 0)
(0.1567082934506516 0 0)
(0.1578693016403084 0 0)
(0.1598991880206375 0 0)
(0.1625825363575874 0 0)
(0.1657387308419843 0 0)
(0.1692211482326542 0 0)
(0.172920443628638 0 0)
(0.1767626880137464 0 0)
(0.1807024089241795 0 0)
(0.1847157483547907 0 0)
(0.1227161128242267 0 0)
(0.1235971614542175 0 0)
(0.12515107481417 0 0)
(0.1272052296405315 0 0)
(0.129618925413256 0 0)
(0.1322845222755307 0 0)
(0.1351277445716204 0 0)
(0.1381022684331711 0 0)
(0.1411815361931655 0 0)
(0.144352015918494 0 0)
(0.08808260202542999 0 0)
(0.08870395788850778 0 0)
(0.08980638771179361 0 0)
(0.09126038597380973 0 0)
(0.0929653719261293 0 0)
(0.09484905600125183 0 0)
(0.09686493144919806 0 0)
(0.09898604404370653 0 0)
(0.1011980552846279 0 0)
(0.1034939085888275 0 0)
(0.05301311256316545 0 0)
(0.05338757387421142 0 0)
(0.05404913334106268 0 0)
(0.05491701986158606 0 0)
(0.05593169966446456 0 0)
(0.05705266705896302 0 0)
(0.05825544545997215 0 0)
(0.05952691431969574 0 0)
(0.06086076336371106 0 0)
(0.06225379189755982 0 0)
(0.0176956556726893 0 0)
(0.01782332502158721 0 0)
(0.01804472571573398 0 0)
(0.01833305166947635 0 0)
(0.0186687691480744 0 0)
(0.01903931433684117 0 0)
(0.01943766729850925 0 0)
(0.01986055337878866 0 0)
(0.02030671892680662 0 0)
(0.02077532140984252 0 0)
(0.4517602326793526 0 0)
(0.4554339628988219 0 0)
(0.4619266599508445 0 0)
(0.4705633151440449 0 0)
(0.480853829077048 0 0)
(0.4924181128287385 0 0)
(0.5049486574959664 0 0)
(0.5181943955699608 0 0)
(0.5319555174426694 0 0)
(0.546080005180383 0 0)
(0.4491404030898972 0 0)
(0.4528301550133919 0 0)
(0.4593339294230481 0 0)
(0.4679910797281268 0 0)
(0.4783142912558568 0 0)
(0.4899176727438431 0 0)
(0.5024830631938833 0 0)
(0.5157498041827456 0 0)
(0.5295150045666185 0 0)
(0.5436322672788866 0 0)
(0.4439559953923286 0 0)
(0.4476661816551308 0 0)
(0.4541904095400979 0 0)
(0.4628826688329009 0 0)
(0.4732617696714694 0 0)
(0.4849430311483364 0 0)
(0.4976061861827085 0 0)
(0.510986579898834 0 0)
(0.5248752150594669 0 0)
(0.5391158916376865 0 0)
(0.4361740161776642 0 0)
(0.4398974861848781 0 0)
(0.4464361529042502 0 0)
(0.4551602473332119 0 0)
(0.4655956457708929 0 0)
(0.4773587755703235 0 0)
(0.4901271170064775 0 0)
(0.5036337396377401 0 0)
(0.5176685403008576 0 0)
(0.5320733629725555 0 0)
(0.4257641030260741 0 0)
(0.4294845793989976 0 0)
(0.43602219021297 0 0)
(0.4447715066425327 0 0)
(0.4552751486843517 0 0)
(0.4671596958753106 0 0)
(0.4801060439993338 0 0)
(0.4938435079526198 0 0)
(0.5081495657444718 0 0)
(0.522844400120683 0 0)
(0.4127054077716605 0 0)
(0.4163939094286876 0 0)
(0.4228912288678831 0 0)
(0.4316221089867776 0 0)
(0.4421550778334516 0 0)
(0.4541399031069683 0 0)
(0.4672783517120833 0 0)
(0.4813144406122769 0 0)
(0.4960250507233444 0 0)
(0.5112048962453556 0 0)
(0.3970043490300093 0 0)
(0.4006235304675512 0 0)
(0.407021658007403 0 0)
(0.4156620783268992 0 0)
(0.4261518535102978 0 0)
(0.4381817107868168 0 0)
(0.4514978447159519 0 0)
(0.4658854997144867 0 0)
(0.4811432350319444 0 0)
(0.4970455445602767 0 0)
(0.3787019425404335 0 0)
(0.3822001090093923 0 0)
(0.3884033861173395 0 0)
(0.3968197095883367 0 0)
(0.4071056916626882 0 0)
(0.4190158915914347 0 0)
(0.4323824841021287 0 0)
(0.44709613840433 0 0)
(0.4630578066252986 0 0)
(0.4800842886377513 0 0)
(0.3578887959802739 0 0)
(0.3612036214309456 0 0)
(0.3670898471062893 0 0)
(0.3750997868909678 0 0)
(0.3849331437603452 0 0)
(0.3964060278369397 0 0)
(0.4094568421909851 0 0)
(0.42416419555796 0 0)
(0.4407370688514946 0 0)
(0.4593964565984907 0 0)
(0.3347017894689408 0 0)
(0.3377554306681025 0 0)
(0.3431916338182622 0 0)
(0.3505892682903711 0 0)
(0.3596621608457851 0 0)
(0.3702320212843484 0 0)
(0.3822620054352196 0 0)
(0.3959537067904417 0 0)
(0.4119680475684516 0 0)
(0.4319676867117728 0 0)
(0.560401995090091 0 0)
(0.5758144870629331 0 0)
(0.5922348251519154 0 0)
(0.609632258821208 0 0)
(0.6279512534724427 0 0)
(0.6471188771602847 0 0)
(0.6670576572556772 0 0)
(0.6876959811543554 0 0)
(0.7089686779103348 0 0)
(0.7308084604394821 0 0)
(0.7531384589066722 0 0)
(0.7758763027449369 0 0)
(0.798947334116524 0 0)
(0.8222912548993757 0 0)
(0.8458530494732109 0 0)
(0.8695740117996664 0 0)
(0.8934003571835315 0 0)
(0.9172756167058922 0 0)
(0.9410978207122617 0 0)
(0.964787354630989 0 0)
(0.5579393314866611 0 0)
(0.5733875047775595 0 0)
(0.5899052365883917 0 0)
(0.6074593814276242 0 0)
(0.6259862901390462 0 0)
(0.6453999656901493 0 0)
(0.6656036879500249 0 0)
(0.6864986216361922 0 0)
(0.7079888060314818 0 0)
(0.7299884322817012 0 0)
(0.7524330183161578 0 0)
(0.7752815843130826 0 0)
(0.7984959903098277 0 0)
(0.8220145250757384 0 0)
(0.8457588735918165 0 0)
(0.8696623724471431 0 0)
(0.8936578030271745 0 0)
(0.9176674143620724 0 0)
(0.9416468692303008 0 0)
(0.9655048314629394 0 0)
(0.5535138824481561 0 0)
(0.5691139299368909 0 0)
(0.5858406703888538 0 0)
(0.6036368345317146 0 0)
(0.6224234638321715 0 0)
(0.6421150446507011 0 0)
(0.6626279693424354 0 0)
(0.6838750406479879 0 0)
(0.7057550556384296 0 0)
(0.7281577708420945 0 0)
(0.7509904858952041 0 0)
(0.7741986988035968 0 0)
(0.7977467182012759 0 0)
(0.8215810384515241 0 0)
(0.8456420106234736 0 0)
(0.8698877803884131 0 0)
(0.8942215349770074 0 0)
(0.9185448011273581 0 0)
(0.9428385159075136 0 0)
(0.9669787011628713 0 0)
(0.546618322269775 0 0)
(0.5624930163272683 0 0)
(0.5796231913037174 0 0)
(0.5979114451373808 0 0)
(0.6172357742752547 0 0)
(0.6374730048352054 0 0)
(0.6585141772665127 0 0)
(0.6802645413330721 0 0)
(0.7026356631397734 0 0)
(0.7255427347390382 0 0)
(0.748908444076239 0 0)
(0.7726624588189621 0 0)
(0.796735291727892 0 0)
(0.8210629951206125 0 0)
(0.8455987646643388 0 0)
(0.8702972267074097 0 0)
(0.8950733307166122 0 0)
(0.9198572915079196 0 0)
(0.9446089991812056 0 0)
(0.9691790369851161 0 0)
(0.5376283840600014 0 0)
(0.5538898324079548 0 0)
(0.5715535851916176 0 0)
(0.5904796218831438 0 0)
(0.6105127138267535 0 0)
(0.63150331991009 0 0)
(0.6533127900426178 0 0)
(0.6758095786520779 0 0)
(0.6988759551086966 0 0)
(0.7224274426035928 0 0)
(0.7464142504272264 0 0)
(0.7707844066874214 0 0)
(0.7954619091875487 0 0)
(0.8203929494005295 0 0)
(0.8455460856651924 0 0)
(0.8708187748794767 0 0)
(0.8961844118159172 0 0)
(0.9215322146132343 0 0)
(0.9468691428537027 0 0)
(0.9720271463949786 0 0)
(0.5264427804393048 0 0)
(0.543371938534016 0 0)
(0.5618780145509781 0 0)
(0.5817281376310089 0 0)
(0.6027036013638124 0 0)
(0.6246260503149784 0 0)
(0.6473512600418239 0 0)
(0.6707465853957517 0 0)
(0.6946842218171098 0 0)
(0.7190612514525051 0 0)
(0.7438156331629724 0 0)
(0.76890034812966 0 0)
(0.7942562111290554 0 0)
(0.8198465140730866 0 0)
(0.8456530406467987 0 0)
(0.871562597102773 0 0)
(0.8975653646204934 0 0)
(0.9235592179030215 0 0)
(0.9495664179424025 0 0)
(0.9754306028862288 0 0)
(0.5130179977649476 0 0)
(0.5309896498438564 0 0)
(0.5507508813240894 0 0)
(0.5719190103030335 0 0)
(0.5941779440790835 0 0)
(0.6172939197544581 0 0)
(0.6410982164583253 0 0)
(0.6654638423969407 0 0)
(0.6902961938112693 0 0)
(0.7155272800705521 0 0)
(0.7410985909507808 0 0)
(0.7669475331338823 0 0)
(0.7930355456402446 0 0)
(0.8193507058342108 0 0)
(0.8458339412171078 0 0)
(0.872435462971813 0 0)
(0.8991317220573004 0 0)
(0.9258480232249566 0 0)
(0.952590462021614 0 0)
(0.9792472268262403 0 0)
(0.4973558416178163 0 0)
(0.517042605983319 0 0)
(0.5386522870821331 0 0)
(0.5615798304403811 0 0)
(0.5854318419061737 0 0)
(0.6099654966196874 0 0)
(0.635020212943891 0 0)
(0.6604765686220879 0 0)
(0.6862573971365025 0 0)
(0.7123340505431306 0 0)
(0.7386868066793706 0 0)
(0.7652617907263928 0 0)
(0.7920301616019747 0 0)
(0.8190140112219849 0 0)
(0.8461436465659719 0 0)
(0.8734204296259649 0 0)
(0.9007907139007738 0 0)
(0.9282398404780681 0 0)
(0.9557566039789966 0 0)
(0.9832903725718829 0 0)
(0.4792826533563275 0 0)
(0.5019854802448009 0 0)
(0.5263402402993713 0 0)
(0.5515306267030798 0 0)
(0.577195875602633 0 0)
(0.603190595765836 0 0)
(0.6294571095618984 0 0)
(0.6559608253851619 0 0)
(0.6826709019326305 0 0)
(0.7095723101964447 0 0)
(0.7366531405460911 0 0)
(0.7638916865249277 0 0)
(0.7912983015365392 0 0)
(0.8188901109844745 0 0)
(0.8465956431597551 0 0)
(0.8744661240325704 0 0)
(0.9024362348241473 0 0)
(0.9305750665281538 0 0)
(0.9588421924991511 0 0)
(0.9872710510662447 0 0)
(0.4588677520313734 0 0)
(0.4869725891238454 0 0)
(0.5150487659613298 0 0)
(0.5428084540127311 0 0)
(0.570323656487304 0 0)
(0.5977154795036258 0 0)
(0.6250764526369786 0 0)
(0.6524656208184184 0 0)
(0.6799225057570009 0 0)
(0.7074858097368774 0 0)
(0.7351638980596834 0 0)
(0.7629475807170691 0 0)
(0.7908760119911096 0 0)
(0.8189563045271577 0 0)
(0.8471400708020925 0 0)
(0.8755090073752039 0 0)
(0.9039643098345075 0 0)
(0.9326697272882939 0 0)
(0.9615821985556722 0 0)
(0.9908236421952337 0 0)
(0.4372928138655349 0 0)
(0.4741301312591539 0 0)
(0.5061473383670269 0 0)
(0.5361472711804021 0 0)
(0.5651617735541158 0 0)
(0.5936745760704 0 0)
(0.6219328887764032 0 0)
(0.6500573141493992 0 0)
(0.6781233423826162 0 0)
(0.7062049803367277 0 0)
(0.7343302975193283 0 0)
(0.7625101878593735 0 0)
(0.7908141692756301 0 0)
(0.8192333952122619 0 0)
(0.8477449371588244 0 0)
(0.8764576106284521 0 0)
(0.905236256210143 0 0)
(0.9342957185613822 0 0)
(0.96360811667813 0 0)
(0.9933012092745561 0 0)
(0.4287820165980987 0 0)
(0.4654716272656908 0 0)
(0.498866286216068 0 0)
(0.5302360636041382 0 0)
(0.5603983668645289 0 0)
(0.589848751594252 0 0)
(0.6188853430562578 0 0)
(0.6476639589489025 0 0)
(0.6762920839897082 0 0)
(0.7048669440158672 0 0)
(0.7334263430987721 0 0)
(0.7620010152001652 0 0)
(0.7906721983950841 0 0)
(0.819406614137813 0 0)
(0.8482155632249686 0 0)
(0.8772166681733654 0 0)
(0.9062765535333395 0 0)
(0.9355920591556398 0 0)
(0.9651738868481895 0 0)
(0.9950660359429602 0 0)
(0.424752119078263 0 0)
(0.4601232572224773 0 0)
(0.493588860361388 0 0)
(0.5255144234848024 0 0)
(0.556357837048112 0 0)
(0.5864795276666512 0 0)
(0.6161309277075355 0 0)
(0.645448539194949 0 0)
(0.6745542896500509 0 0)
(0.7035620697983677 0 0)
(0.7325113805325374 0 0)
(0.7614488624378466 0 0)
(0.790458735006636 0 0)
(0.8194814981406329 0 0)
(0.8485626456757468 0 0)
(0.8778034946685811 0 0)
(0.9071181023095753 0 0)
(0.9366322351633359 0 0)
(0.966399547384297 0 0)
(0.9964070915278589 0 0)
(0.4224600068786338 0 0)
(0.4566863846908508 0 0)
(0.4898127945320615 0 0)
(0.5218636810889409 0 0)
(0.5530513193549782 0 0)
(0.5836113370923478 0 0)
(0.6137172464861066 0 0)
(0.6434617974314011 0 0)
(0.6729652165732732 0 0)
(0.702344124658171 0 0)
(0.731630850184812 0 0)
(0.760885003423428 0 0)
(0.7901897597447068 0 0)
(0.8194648560113093 0 0)
(0.848793483361186 0 0)
(0.8782318040029591 0 0)
(0.9077678495501109 0 0)
(0.9374471421628311 0 0)
(0.9673517038182606 0 0)
(0.997437789473541 0 0)
(0.4210019880083119 0 0)
(0.4543946830993221 0 0)
(0.4871143611168066 0 0)
(0.5190986099600833 0 0)
(0.5504199462795597 0 0)
(0.5812375752145807 0 0)
(0.6116511041795224 0 0)
(0.6417128098670857 0 0)
(0.6715376607583918 0 0)
(0.7012316732185241 0 0)
(0.7308083985223958 0 0)
(0.7603356188229846 0 0)
(0.7898915341453163 0 0)
(0.8193799356482827 0 0)
(0.8489279506344751 0 0)
(0.8785327675365343 0 0)
(0.908254143237771 0 0)
(0.9380748177309881 0 0)
(0.9680872083068127 0 0)
(0.9982309963950813 0 0)
(0.4199951683370778 0 0)
(0.4527890514405715 0 0)
(0.4851529675447973 0 0)
(0.5170016793368379 0 0)
(0.548348002822034 0 0)
(0.5793074799479668 0 0)
(0.6099178975927633 0 0)
(0.6402027577321537 0 0)
(0.670275642039991 0 0)
(0.7002260721428619 0 0)
(0.7300423207059638 0 0)
(0.7597984646514041 0 0)
(0.7895657727255287 0 0)
(0.8192347165216642 0 0)
(0.8489783753296277 0 0)
(0.8787347361796087 0 0)
(0.9086142107867701 0 0)
(0.9385543287101675 0 0)
(0.9686502155536496 0 0)
(0.9988356388279267 0 0)
(0.4192901000038421 0 0)
(0.451631123558949 0 0)
(0.4837085333313009 0 0)
(0.5154029820671234 0 0)
(0.5467257249397801 0 0)
(0.5777599491648147 0 0)
(0.6084932057161965 0 0)
(0.6389287329206689 0 0)
(0.6691823759771138 0 0)
(0.6993281771815909 0 0)
(0.7293311464886709 0 0)
(0.7592740477865276 0 0)
(0.7892216095141709 0 0)
(0.8190509346416124 0 0)
(0.8489644005112001 0 0)
(0.87886008704866 0 0)
(0.9088731859065304 0 0)
(0.9389118429529126 0 0)
(0.9690706260298202 0 0)
(0.9992847120010967 0 0)
(0.4188159747025592 0 0)
(0.4508104722448912 0 0)
(0.482652062546296 0 0)
(0.5141917411795744 0 0)
(0.545466912176358 0 0)
(0.5765319755519542 0 0)
(0.6073359944273331 0 0)
(0.6378663557295825 0 0)
(0.6682425183578515 0 0)
(0.6985275871253528 0 0)
(0.7286702013503721 0 0)
(0.758761885857553 0 0)
(0.7888610146849798 0 0)
(0.8188450580020441 0 0)
(0.8489076958062647 0 0)
(0.8789253645431145 0 0)
(0.9090457668251886 0 0)
(0.9391616544137896 0 0)
(0.969367509137719 0 0)
(0.9996030350442431 0 0)
(0.4185058945598264 0 0)
(0.4502465410300883 0 0)
(0.4818899894335077 0 0)
(0.5132891043211482 0 0)
(0.5445036681571049 0 0)
(0.5755660515782292 0 0)
(0.6063994194568816 0 0)
(0.6369792628606433 0 0)
(0.6674298189198841 0 0)
(0.697809721152616 0 0)
(0.7280616861241329 0 0)
(0.7582808383145025 0 0)
(0.7885031072498097 0 0)
(0.8186259978451821 0 0)
(0.848817033701347 0 0)
(0.8789354969066298 0 0)
(0.9091379218009735 0 0)
(0.939313788531814 0 0)
(0.969558814527913 0 0)
(0.9998148679207853 0 0)
(0.4183092516957173 0 0)
(0.449867247613539 0 0)
(0.481350411883505 0 0)
(0.5126344316729938 0 0)
(0.5437827728118469 0 0)
(0.5748170923249286 0 0)
(0.6056470949221906 0 0)
(0.6362424729320081 0 0)
(0.666733291895193 0 0)
(0.6971757454412928 0 0)
(0.7275138448210088 0 0)
(0.7578454982814107 0 0)
(0.7881678984507169 0 0)
(0.8183994801685438 0 0)
(0.8486899813654143 0 0)
(0.8788874544127321 0 0)
(0.9091554757219573 0 0)
(0.9393841802921916 0 0)
(0.9696671277236019 0 0)
(0.9999429867274058 0 0)
(0.4182048355645341 0 0)
(0.4496239563768549 0 0)
(0.4809843679612426 0 0)
(0.5121760281830451 0 0)
(0.5432532623203252 0 0)
(0.5742392535541638 0 0)
(0.6050415654743685 0 0)
(0.6356321298315931 0 0)
(0.6661473694985341 0 0)
(0.6966368675025132 0 0)
(0.7270422008499543 0 0)
(0.7574615865772105 0 0)
(0.7878561879371818 0 0)
(0.8181603859947562 0 0)
(0.8485223023570968 0 0)
(0.8787859822170813 0 0)
(0.9091156916925135 0 0)
(0.9393957829793177 0 0)
(0.9697120466589272 0 0)
(1 0 0)
(0.4181850624832506 0 0)
(0.4494912273766449 0 0)
(0.4807557924688796 0 0)
(0.5118625426447636 0 0)
(0.5428592277816312 0 0)
(0.5737812546103053 0 0)
(0.6045437174387179 0 0)
(0.6351260408096169 0 0)
(0.6656655233494081 0 0)
(0.6961953273716345 0 0)
(0.7266475439165859 0 0)
(0.7571190604892017 0 0)
(0.7875536519966485 0 0)
(0.8179033773412712 0 0)
(0.848323962178323 0 0)
(0.8786531122901139 0 0)
(0.9090426839115802 0 0)
(0.9393639111841231 0 0)
(0.969698605633873 0 0)
(0.9999894604257211 0 0)
(0.4182400065907267 0 0)
(0.4494510779775627 0 0)
(0.4806273733136042 0 0)
(0.5116397017960617 0 0)
(0.542543407051391 0 0)
(0.5733940751713097 0 0)
(0.6041199905180228 0 0)
(0.6347057898373787 0 0)
(0.6652763959826277 0 0)
(0.6958365967351307 0 0)
(0.7263087918923382 0 0)
(0.7567973893600042 0 0)
(0.787251813590205 0 0)
(0.8176420016619802 0 0)
(0.8481234484407463 0 0)
(0.8785141819168811 0 0)
(0.9089459635204069 0 0)
(0.9392851863324589 0 0)
(0.9696264404161805 0 0)
(0.9999271816816351 0 0)
(0.4183559490967118 0 0)
(0.449481296596795 0 0)
(0.480557414007405 0 0)
(0.511458076170748 0 0)
(0.5422630553608365 0 0)
(0.5730508243781177 0 0)
(0.6037584398940379 0 0)
(0.6343628133442281 0 0)
(0.6649623405285688 0 0)
(0.6955316300189238 0 0)
(0.7259969562108217 0 0)
(0.7564871995038447 0 0)
(0.7869675157167006 0 0)
(0.8174086722257317 0 0)
(0.847944818315951 0 0)
(0.8783699053906237 0 0)
(0.9088136399152106 0 0)
(0.9391604972199598 0 0)
(0.9695199921393215 0 0)
(0.9998476335980357 0 0)
(0.4185168636737828 0 0)
(0.4495543324377527 0 0)
(0.4805098340886307 0 0)
(0.5112901554844734 0 0)
(0.542009420168457 0 0)
(0.5727607269311921 0 0)
(0.603471277014838 0 0)
(0.6340924636436234 0 0)
(0.6646964091258677 0 0)
(0.6952486605589417 0 0)
(0.7257014673697795 0 0)
(0.7562108251337375 0 0)
(0.7867368709993707 0 0)
(0.8172217070717589 0 0)
(0.8477755457862381 0 0)
(0.8781984324854527 0 0)
(0.9086512880775212 0 0)
(0.9390355926711227 0 0)
(0.9694273060274899 0 0)
(0.999749119267709 0 0)
(0.4187001000522125 0 0)
(0.4496391066746225 0 0)
(0.4804641794688496 0 0)
(0.5111407477911254 0 0)
(0.5418099803777842 0 0)
(0.5725550125781819 0 0)
(0.6032682423016966 0 0)
(0.6338736224351417 0 0)
(0.6644469812618836 0 0)
(0.6949805206233304 0 0)
(0.7254530883211925 0 0)
(0.7560102623737386 0 0)
(0.786568982883859 0 0)
(0.8170473493430751 0 0)
(0.8475840527917827 0 0)
(0.8780226295156187 0 0)
(0.908521332468114 0 0)
(0.938950852694191 0 0)
(0.9693527627627712 0 0)
(0.99961087799308 0 0)
(0.4188751543149544 0 0)
(0.4497066854040504 0 0)
(0.4804206281244199 0 0)
(0.511039555573675 0 0)
(0.5416996074850178 0 0)
(0.572441242289942 0 0)
(0.6031187519310992 0 0)
(0.6336670904326426 0 0)
(0.664212379002655 0 0)
(0.694774088842267 0 0)
(0.7253004440949286 0 0)
(0.75587798138482 0 0)
(0.7864059488429513 0 0)
(0.8168507431712232 0 0)
(0.8474137763092288 0 0)
(0.8779351739055956 0 0)
(0.9084554661874004 0 0)
(0.9387880449089299 0 0)
(0.9692109347157729 0 0)
(0.9996522194489282 0 0)
(0.4190134869726192 0 0)
(0.4497428865843421 0 0)
(0.4803974984938037 0 0)
(0.5110106474503364 0 0)
(0.5416669322321291 0 0)
(0.5723621356761749 0 0)
(0.6029648148458245 0 0)
(0.6334784928769013 0 0)
(0.6640644084452781 0 0)
(0.6946852074793916 0 0)
(0.7252031333124458 0 0)
(0.7557124056725032 0 0)
(0.7862321312051286 0 0)
(0.8167737622637163 0 0)
(0.8473681658486651 0 0)
(0.8777796856062365 0 0)
(0.9082997833428411 0 0)
(0.9387307957019666 0 0)
(0.9690883882330581 0 0)
(0.9994594227975514 0 0)
(0.4191038638902156 0 0)
(0.4497598955472155 0 0)
(0.4804123765505441 0 0)
(0.5110260389960091 0 0)
(0.5416259736940449 0 0)
(0.5722477865429536 0 0)
(0.602847508116358 0 0)
(0.6334251277722719 0 0)
(0.6640262497086067 0 0)
(0.6945726197886335 0 0)
(0.725066147003261 0 0)
(0.7556669320831204 0 0)
(0.7862090405068864 0 0)
(0.8166596344279149 0 0)
(0.8472813144038177 0 0)
(0.8777602722469372 0 0)
(0.9082210092651198 0 0)
(0.9386489835128393 0 0)
(0.9689953899763406 0 0)
(0.9993793486208218 0 0)
(0.4191574010663256 0 0)
(0.4497899860042049 0 0)
(0.4804375717962125 0 0)
(0.5109746332257665 0 0)
(0.5415576127780772 0 0)
(0.5722458775602041 0 0)
(0.6028650218789422 0 0)
(0.6333636421331568 0 0)
(0.6639440088412076 0 0)
(0.6945761579936927 0 0)
(0.7250690073227362 0 0)
(0.7555926956154894 0 0)
(0.7861794927802565 0 0)
(0.8166700674738131 0 0)
(0.8472596212026264 0 0)
(0.8777969772549371 0 0)
(0.9082667651950002 0 0)
(0.9387014722503675 0 0)
(0.9690151787632996 0 0)
(0.9992396750970004 0 0)
(0.02126272212975219 0 0)
(0.06369652688767767 0 0)
(0.105856781279777 0 0)
(0.1475844662817103 0 0)
(0.1887539224909247 0 0)
(0.229300007335739 0 0)
(0.26924428179358 0 0)
(0.3087523569044524 0 0)
(0.3482859033484231 0 0)
(0.3889547369840178 0 0)
(0.02167514539037303 0 0)
(0.0649254530454392 0 0)
(0.1078641319015654 0 0)
(0.1502991650470339 0 0)
(0.192081846252765 0 0)
(0.2331184451448663 0 0)
(0.2733681428203426 0 0)
(0.3128514351658067 0 0)
(0.351650112721233 0 0)
(0.3897112567815116 0 0)
(0.02202417338940779 0 0)
(0.06595652494184105 0 0)
(0.1095290620949615 0 0)
(0.1525158671274046 0 0)
(0.1947416377269478 0 0)
(0.2360722593802095 0 0)
(0.276385187347211 0 0)
(0.315547673330502 0 0)
(0.353364622897676 0 0)
(0.3893541280751928 0 0)
(0.0223120498686214 0 0)
(0.06679785154876317 0 0)
(0.1108686540028794 0 0)
(0.154266923058176 0 0)
(0.1967916024066578 0 0)
(0.2382675502113455 0 0)
(0.2784997050192216 0 0)
(0.3172489442946264 0 0)
(0.3541966565667872 0 0)
(0.3888312415952017 0 0)
(0.0225411805314176 0 0)
(0.06745911370921295 0 0)
(0.1119046296513888 0 0)
(0.1555936107476514 0 0)
(0.1983036029375354 0 0)
(0.2398252397447636 0 0)
(0.2799112026071925 0 0)
(0.3182658197649901 0 0)
(0.3545477990778437 0 0)
(0.3883421141442982 0 0)
(0.02271477358466427 0 0)
(0.0679528251143542 0 0)
(0.112663739710639 0 0)
(0.1565439188578995 0 0)
(0.1993561677389186 0 0)
(0.2408666326224055 0 0)
(0.2807948694380693 0 0)
(0.3188233803665904 0 0)
(0.3546355029267473 0 0)
(0.3879279515018108 0 0)
(0.0228371891851645 0 0)
(0.06829477298391576 0 0)
(0.1131773926829125 0 0)
(0.1571701200364899 0 0)
(0.200027946186559 0 0)
(0.2415014056324723 0 0)
(0.2812911772346374 0 0)
(0.3190775874174305 0 0)
(0.3545834612007961 0 0)
(0.3875990369911332 0 0)
(0.02291384073256807 0 0)
(0.0685035559053524 0 0)
(0.1134808421285862 0 0)
(0.157527473706554 0 0)
(0.2003957722817395 0 0)
(0.2418260169071688 0 0)
(0.2815087219641808 0 0)
(0.3191316758671338 0 0)
(0.3544576284677012 0 0)
(0.3873483072741351 0 0)
(0.02295080292229856 0 0)
(0.06859923051312085 0 0)
(0.1136110222132903 0 0)
(0.1576714808741136 0 0)
(0.200532458605318 0 0)
(0.2419251049697588 0 0)
(0.2815335947626912 0 0)
(0.3190569945743192 0 0)
(0.3542942711944588 0 0)
(0.3871623094741932 0 0)
(0.02295455321277889 0 0)
(0.06860209546770694 0 0)
(0.1136037733101963 0 0)
(0.1576530366585252 0 0)
(0.2005002712548151 0 0)
(0.2418659051445028 0 0)
(0.281429218685837 0 0)
(0.3189018084890979 0 0)
(0.3541150483722657 0 0)
(0.3870307339063018 0 0)
(0.02293200569804036 0 0)
(0.06853287338905581 0 0)
(0.1134934069410878 0 0)
(0.1575166125091054 0 0)
(0.2003474286216149 0 0)
(0.2416940080069999 0 0)
(0.28123342933095 0 0)
(0.3186916431176124 0 0)
(0.3539295960017836 0 0)
(0.3869465474405472 0 0)
(0.02289030845731438 0 0)
(0.06841324583794878 0 0)
(0.1133140923009115 0 0)
(0.1573027023937583 0 0)
(0.200112278492775 0 0)
(0.2414396234476699 0 0)
(0.2809662308915321 0 0)
(0.3184369940875442 0 0)
(0.3537405490706942 0 0)
(0.3869055220526839 0 0)
(0.02283627525932273 0 0)
(0.06826505695211124 0 0)
(0.1130994837007806 0 0)
(0.1570490831518423 0 0)
(0.1998284322086476 0 0)
(0.2411276970588435 0 0)
(0.2806436543506543 0 0)
(0.3181474049000501 0 0)
(0.3535532760404715 0 0)
(0.3869083515361437 0 0)
(0.02277617211557598 0 0)
(0.06810853389148092 0 0)
(0.112879468112613 0 0)
(0.156787469638647 0 0)
(0.1995239285819428 0 0)
(0.2407811885941702 0 0)
(0.2802846050945916 0 0)
(0.3178388562562355 0 0)
(0.3533796204591831 0 0)
(0.3869581326180573 0 0)
(0.02271624768817295 0 0)
(0.06796099630760441 0 0)
(0.1126765075651153 0 0)
(0.1565387192487946 0 0)
(0.1992168507172352 0 0)
(0.2404179209430915 0 0)
(0.2799085682161713 0 0)
(0.31753046803352 0 0)
(0.3532314043425709 0 0)
(0.3870504835936137 0 0)
(0.02266315342489173 0 0)
(0.06783613583604867 0 0)
(0.1125038176318042 0 0)
(0.1563113236073212 0 0)
(0.198914312746389 0 0)
(0.2400493361645398 0 0)
(0.2795328462150064 0 0)
(0.3172388317468835 0 0)
(0.3531119113893943 0 0)
(0.3871652795439843 0 0)
(0.02262304699681315 0 0)
(0.06774265914522432 0 0)
(0.1123653043582182 0 0)
(0.1561043374744615 0 0)
(0.198617689005791 0 0)
(0.2396859976119438 0 0)
(0.2791757666860612 0 0)
(0.3169775299913796 0 0)
(0.3530140160971557 0 0)
(0.3872698996551072 0 0)
(0.02259941063421149 0 0)
(0.06768226853328757 0 0)
(0.1122568387713386 0 0)
(0.1559132914436965 0 0)
(0.1983320979007405 0 0)
(0.239347923960508 0 0)
(0.2788641829470447 0 0)
(0.3167607129831918 0 0)
(0.3529249739197904 0 0)
(0.3873348492537121 0 0)
(0.02259112433509533 0 0)
(0.06764943193006072 0 0)
(0.1121700779547818 0 0)
(0.1557382028254662 0 0)
(0.19807785687667 0 0)
(0.2390757212351088 0 0)
(0.2786384837287841 0 0)
(0.3166024657734095 0 0)
(0.3528309672643898 0 0)
(0.3873543405527625 0 0)
(0.02259227182709668 0 0)
(0.06763668675113488 0 0)
(0.1120999465541739 0 0)
(0.1555924647735172 0 0)
(0.1979050614667983 0 0)
(0.2389398014426706 0 0)
(0.2785413372764234 0 0)
(0.3164938816748031 0 0)
(0.3527169438724575 0 0)
(0.3873771322777611 0 0)
)

(0.1046075086436625 -0.02330068911133332 0)
    1, 1, 0.3062379291826262, 0, 0

1000
(
(0.1046075086436625 -0.02330068911133332 0)
(0.1008871628383162 -0.02589816890126898 0)
(0.09889461136558714 -0.02907624279844667 0)
(0.09808552114908987 -0.03258493354002961 0)
(0.09807763740674227 -0.03640719412088052 0)
(0.0986689706653515 -0.04049384450995363 0)
(0.09964979266859136 -0.04482288719295351 0)
(0.1008464832047965 -0.04951605970378784 0)
(0.1020921493297012 -0.0546719671864281 0)
(0.1024302734879317 -0.06090717639978622 0)
(0.09524878565156643 -0.02572098512131998 0)
(0.09134950407109285 -0.02911827667850663 0)
(0.08920564480512201 -0.03300137987251305 0)
(0.08831097605289219 -0.03706450080809963 0)
(0.08820358370503643 -0.04131840102666871 0)
(0.0886423749398431 -0.04581413864799912 0)
(0.08947618484708016 -0.05049965095067921 0)
(0.09055614497076422 -0.0554459424152934 0)
(0.09178103685424582 -0.06062341803544102 0)
(0.09255820039802964 -0.06631994239167066 0)
(0.08533768661107892 -0.02803895372822275 0)
(0.0813641800273885 -0.03230533260535352 0)
(0.07913971979498256 -0.03678975010287861 0)
(0.07816641862094058 -0.04135969519505782 0)
(0.07797875645150452 -0.04597047004206821 0)
(0.078312638738278 -0.05068161462848035 0)
(0.07902687605115778 -0.05548218873812576 0)
(0.08003334654467621 -0.06035477830676912 0)
(0.08123337848533702 -0.06520745482261596 0)
(0.08222878394168925 -0.07028495004837074 0)
(0.0749090955461842 -0.03015417049630454 0)
(0.07108049047795428 -0.0352989036090005 0)
(0.06887640817087791 -0.04034505037278465 0)
(0.06785548694094726 -0.04529514724638327 0)
(0.06758175644822555 -0.05018496356050101 0)
(0.06784599630859255 -0.05502339091657211 0)
(0.0684802493708956 -0.05980885282402906 0)
(0.06942350721772406 -0.06453760069639522 0)
(0.0705750825496811 -0.06914403790129188 0)
(0.07166322441592826 -0.07380364475330289 0)
(0.06406888409763024 -0.0320247538983119 0)
(0.06056668879667065 -0.03798626975778999 0)
(0.05845389790995618 -0.04357542010935582 0)
(0.05742884193045924 -0.04887337754716751 0)
(0.05712990923866135 -0.05393211102526389 0)
(0.05733533483404249 -0.05882749415280969 0)
(0.05789218318731033 -0.06359593713006016 0)
(0.05873294066427447 -0.06819742472683553 0)
(0.05980994875686438 -0.07260832299289202 0)
(0.06089009384432569 -0.07697090631077355 0)
(0.05287240642030939 -0.0336115031914341 0)
(0.04978965756429066 -0.04031716538699606 0)
(0.04791710083505663 -0.04633729141526019 0)
(0.04697629856103084 -0.05193017945769174 0)
(0.04668973126989141 -0.05717696946998944 0)
(0.04681862238659157 -0.06214578195788291 0)
(0.04728318415926253 -0.06687527487346068 0)
(0.04801128646330192 -0.07136764026739163 0)
(0.04896146481430524 -0.07564154511252179 0)
(0.04994889570370049 -0.07979964465919019 0)
(0.04141938304610057 -0.03486764742414977 0)
(0.03886198021462962 -0.04220405056325414 0)
(0.03732097126523937 -0.04861343471942311 0)
(0.03652379154143988 -0.05445553945817382 0)
(0.03626055834282673 -0.05984807229801172 0)
(0.03634090125344104 -0.06489033877400018 0)
(0.03670828655117393 -0.06959818778595345 0)
(0.03730439317309989 -0.07403045540020663 0)
(0.03808491054660383 -0.07822406775959001 0)
(0.03890974807463211 -0.08225157083455276 0)
(0.02976259366044115 -0.0357940952889902 0)
(0.02783610582592487 -0.04364359206294196 0)
(0.02668625574279335 -0.05037672279567613 0)
(0.02609665128095949 -0.05639268882837287 0)
(0.02587550909504776 -0.06189461621683173 0)
(0.02591921942373478 -0.06698000149115953 0)
(0.02618632347831122 -0.07169387456288862 0)
(0.02662937562807403 -0.07609483563210734 0)
(0.02720531140792103 -0.08021737134275228 0)
(0.02781477910874937 -0.08412210208604379 0)
(0.01795275204161921 -0.03640415618726207 0)
(0.01675748692210466 -0.04459766054080922 0)
(0.01604129963220678 -0.05157098588399062 0)
(0.01565685100197966 -0.05773840236366921 0)
(0.01549845063189838 -0.06331500208089604 0)
(0.01552729550985455 -0.06841607806896038 0)
(0.01570839908752437 -0.07313762628739416 0)
(0.01598667159467353 -0.07754122341436659 0)
(0.01632911359821532 -0.0816568228135096 0)
(0.01669482641643699 -0.08552347307508508 0)
(0.006018672676252288 -0.03670315752066042 0)
(0.005590378640455232 -0.04504537507908904 0)
(0.005338566654241879 -0.05214647423997622 0)
(0.005218973949916039 -0.05839339528065103 0)
(0.005176764900802432 -0.06399711304442066 0)
(0.005179491686898039 -0.0691037774509041 0)
(0.005230045432849953 -0.07381039247364123 0)
(0.005325103079226273 -0.07817851719823202 0)
(0.005443996903289864 -0.08225702017113425 0)
(0.005564527942228187 -0.08607643473441288 0)
(0.1552674918854844 -0.0009611868641174001 0)
(0.1553715392686019 -0.0008733529831792096 0)
(0.1558267361995674 -0.0008932480655456968 0)
(0.1566008720162878 -0.000984992071657162 0)
(0.1577380159382073 -0.001118013249251178 0)
(0.1592569789235805 -0.00128289995690765 0)
(0.1611781680039314 -0.00146326243115211 0)
(0.1634386505331754 -0.00165710417415696 0)
(0.1661214946623074 -0.001854619212543639 0)
(0.1691754252674754 -0.002054621005568976 0)
(0.1543318475564375 -0.002900948578430671 0)
(0.1542750324216207 -0.002660016435417673 0)
(0.154610861538289 -0.002726147899230734 0)
(0.1553328327224798 -0.003010087699018648 0)
(0.1564385162068548 -0.003417499040412306 0)
(0.1578981793434052 -0.003905562342812998 0)
(0.1597825707905711 -0.004440991115228467 0)
(0.1620150482486819 -0.00501948087189959 0)
(0.16465103665955 -0.005607685019953778 0)
(0.1676769094596941 -0.006205552141201938 0)
(0.1523503892759329 -0.004870861170376286 0)
(0.1520702139924522 -0.004534051060222413 0)
(0.1522324540250608 -0.00467905300325456 0)
(0.1528422596317655 -0.005157166829673942 0)
(0.153869427769784 -0.005842273221676736 0)
(0.1552712517289198 -0.006669454147781336 0)
(0.1570837035334911 -0.007568258835950739 0)
(0.1592624894886658 -0.008524827440150724 0)
(0.1618544477024993 -0.009496676536269734 0)
(0.1648710004693982 -0.0104851911036395 0)
(0.1493974034529563 -0.006903988039319354 0)
(0.1488032874233947 -0.006537088214546857 0)
(0.1487192819681167 -0.006811074981478878 0)
(0.1491782478368218 -0.007512756154310126 0)
(0.1500709723826764 -0.008482760670023071 0)
(0.151340193322574 -0.009646367695844621 0)
(0.153040899559331 -0.01091267945108327 0)
(0.1551652368081788 -0.01225305544656699 0)
(0.1576910364432882 -0.0136226627878911 0)
(0.1606737405431158 -0.01500267699462705 0)
(0.1454905881428135 -0.009015557633904431 0)
(0.1445173402119157 -0.008704593283461742 0)
(0.1441525795487499 -0.009165811120843356 0)
(0.1443743282377888 -0.01012931102304512 0)
(0.1451032399215176 -0.01139780104222349 0)
(0.1462501803511126 -0.01289565408857376 0)
(0.1478158665287431 -0.01452975500030409 0)
(0.1498302356919262 -0.0162511945628995 0)
(0.1522447622724466 -0.01802222752781581 0)
(0.155185681318117 -0.01979463935077429 0)
(0.1407111212929498 -0.01121997719105298 0)
(0.1392358493405479 -0.01107105452160814 0)
(0.1385767505730365 -0.01177987274917971 0)
(0.1385726795765406 -0.01304513352729472 0)
(0.1391253514737578 -0.01463349326423087 0)
(0.1401234067712985 -0.01647311178447005 0)
(0.1415307363771193 -0.01847020542878861 0)
(0.143373124427296 -0.02056418675602835 0)
(0.1456239758445413 -0.02273168733677097 0)
(0.1485080122300457 -0.02489343263363141 0)
(0.1350882029877165 -0.01351361489769924 0)
(0.1330621038359905 -0.0136557935695339 0)
(0.1320969104939115 -0.01468028846612844 0)
(0.1318879712608995 -0.01629561410102744 0)
(0.1322598467131683 -0.01823790223244901 0)
(0.1330953246651075 -0.02042805353094896 0)
(0.1343334479647759 -0.02278699648435063 0)
(0.1359765618848228 -0.02525493807465919 0)
(0.1380403424699391 -0.02782559523075853 0)
(0.1408773355176135 -0.03038326324051942 0)
(0.1286446382627117 -0.01588124616233236 0)
(0.1260774269773995 -0.01646407701122606 0)
(0.1247895943219322 -0.01789081128771453 0)
(0.1243947404383835 -0.01990220511330888 0)
(0.1246198175967981 -0.02224624912555381 0)
(0.125332386169809 -0.02481271485053154 0)
(0.1264284859483154 -0.0275372053211275 0)
(0.1278745568916682 -0.03037097511431906 0)
(0.1296909116082508 -0.03334218867050381 0)
(0.1323943635989709 -0.03630670112093295 0)
(0.1214045518748207 -0.01830612928673962 0)
(0.1183433119615883 -0.01947949712220377 0)
(0.1167683186651228 -0.02140037758952115 0)
(0.1162103438629827 -0.02386258214865295 0)
(0.1163615807323407 -0.02665321216203307 0)
(0.1170311340941878 -0.02965139526454304 0)
(0.1180748074453332 -0.03279140687841847 0)
(0.1193810273851388 -0.036032402155547 0)
(0.1208548940765252 -0.0394387480868634 0)
(0.1231442227108934 -0.04282523353844699 0)
(0.1134117781591898 -0.02076256557614845 0)
(0.1099721318912116 -0.02264161124809981 0)
(0.1081394828703677 -0.02515343722811394 0)
(0.1074370674741886 -0.02813202816150608 0)
(0.1075290213180552 -0.03142462876898336 0)
(0.1081844129969946 -0.03493932372004266 0)
(0.1092814390857869 -0.03862325150359162 0)
(0.1106928857589704 -0.04245965252413321 0)
(0.112150254268467 -0.04657160457578875 0)
(0.113750356726988 -0.05081633742768935 0)
(0.172460648032309 -0.002245240189565383 0)
(0.1759676624184466 -0.002415455996790006 0)
(0.1795564555099809 -0.002576365297697692 0)
(0.1831735731836866 -0.002740141184115484 0)
(0.1868044204818223 -0.002900998168904648 0)
(0.1904894845350476 -0.003047000403725675 0)
(0.1942599761663973 -0.003180071744956356 0)
(0.198094562721468 -0.003316896924033594 0)
(0.2019698946117731 -0.003466933339057541 0)
(0.2059011389080668 -0.003618905967931523 0)
(0.2099136277686726 -0.003753708299260297 0)
(0.2140228681783241 -0.003866199991674599 0)
(0.2182407312369038 -0.003963766063542859 0)
(0.2225721909590753 -0.004052269759293702 0)
(0.2270084533706224 -0.004131010752151091 0)
(0.2315427425515131 -0.004197471463740168 0)
(0.2361851159211728 -0.004250849866638731 0)
(0.2409427907176709 -0.004291274240410804 0)
(0.2458279268726741 -0.004323408099075033 0)
(0.250921945767534 -0.004356663233916211 0)
(0.1709893690192646 -0.006779729414759894 0)
(0.1745647431193735 -0.007301587800032771 0)
(0.1782139636612523 -0.007791442769703869 0)
(0.1818895337893404 -0.008270698855311169 0)
(0.1855861651147819 -0.008735347931268164 0)
(0.1893285682155172 -0.00917423859389978 0)
(0.1931463873329457 -0.009591504648380629 0)
(0.1970418455344784 -0.01000397140329409 0)
(0.2010060866748713 -0.01041959002208385 0)
(0.205048900355702 -0.0108254187725691 0)
(0.2091821871187099 -0.01119715787677479 0)
(0.213409050121202 -0.01152681819361344 0)
(0.2177288368563833 -0.01182176343034805 0)
(0.2221372305603714 -0.01208719003022096 0)
(0.2266256145509081 -0.01232018869548638 0)
(0.2311914005252615 -0.01251648323284366 0)
(0.2358469984366553 -0.01267463590900637 0)
(0.2406068746513695 -0.01279688315054978 0)
(0.2455110595388602 -0.01289783511864149 0)
(0.2506350833789767 -0.01300069719146484 0)
(0.1682554934741309 -0.01143094748591587 0)
(0.1719940920723432 -0.0122882387009178 0)
(0.1758112881015984 -0.01308998966881674 0)
(0.1796249693973618 -0.01386888622543392 0)
(0.183443159124997 -0.0146237745679269 0)
(0.1873114058853939 -0.015344764967132 0)
(0.1912539179107385 -0.01603643817695899 0)
(0.1952479998998464 -0.01670941016348862 0)
(0.1992758322653336 -0.01736537692130775 0)
(0.2033777982855577 -0.01799328672772475 0)
(0.207604946738758 -0.01857467393410706 0)
(0.2119629030038859 -0.01910457922227564 0)
(0.2164190456358324 -0.01958691143959067 0)
(0.2209469105485185 -0.02002053254619124 0)
(0.225552229109032 -0.02039830634984539 0)
(0.230242770556834 -0.02071323189028225 0)
(0.2350017520545468 -0.02096422360056267 0)
(0.2398744172911184 -0.02116328207065543 0)
(0.2448776313152546 -0.02133763665222634 0)
(0.250092036873534 -0.02152256691138955 0)
(0.1641311522273064 -0.01629199334704024 0)
(0.1680589180694217 -0.01744009037876081 0)
(0.1720823968989137 -0.01851771375368648 0)
(0.1761028818838621 -0.01957582053034915 0)
(0.1801369046610381 -0.02060786590197674 0)
(0.1842183613812135 -0.02159516700635109 0)
(0.1883609735646146 -0.02254032489336336 0)
(0.1925493640148228 -0.02345136534751116 0)
(0.1967796869926997 -0.02433177941427884 0)
(0.2010826295956841 -0.02516722816480013 0)
(0.2054949995311843 -0.02594018634049429 0)
(0.2100203545229465 -0.02664742122645519 0)
(0.2146334093594624 -0.02728927316488825 0)
(0.2193141791931606 -0.0278603706648233 0)
(0.2240751200621063 -0.02835432908529285 0)
(0.2289284395464953 -0.02876531308770853 0)
(0.2338393134626525 -0.0290969932640258 0)
(0.2388762064395402 -0.02937330396581553 0)
(0.2440206247799195 -0.0296307904944375 0)
(0.2493385575114806 -0.02991288982908346 0)
(0.1587674918713536 -0.02140914284094766 0)
(0.1629844342002058 -0.022816380789847 0)
(0.1673128549715819 -0.02414282626641561 0)
(0.1715967552210122 -0.02546055129198551 0)
(0.1758647211750684 -0.02675318035358576 0)
(0.1801643922501645 -0.02799274169206902 0)
(0.1845358373514821 -0.029180961774694 0)
(0.1889618310391633 -0.03031472798081566 0)
(0.1934531700237499 -0.0314023096965926 0)
(0.1980350019377814 -0.03242532134998131 0)
(0.2027120918477714 -0.03336304183636153 0)
(0.2074690530283483 -0.03421141654044647 0)
(0.2123011679695465 -0.03497020757058338 0)
(0.2172205449188489 -0.03563660826263567 0)
(0.2222276424131406 -0.03620995425108413 0)
(0.2272977409472103 -0.03669205351943052 0)
(0.2324392208462253 -0.03709538743998743 0)
(0.2376629268657638 -0.03745037672786747 0)
(0.2429888621416166 -0.03780065398502589 0)
(0.2484421045449565 -0.03818225973923552 0)
(0.1522397888645764 -0.02681943169504642 0)
(0.1567833994041922 -0.0284655830469473 0)
(0.1614653247994517 -0.03002996027041198 0)
(0.1660856098510281 -0.03160245490936679 0)
(0.1707056792884087 -0.03314792253521217 0)
(0.1753449241416417 -0.0346251133944213 0)
(0.1800437426182802 -0.03603501589134649 0)
(0.1847738655220381 -0.03736617197806933 0)
(0.1895427094831817 -0.0386223892107098 0)
(0.1944058087059112 -0.03978686078587033 0)
(0.1993868880890087 -0.04084424042075699 0)
(0.2044561111131481 -0.04179089532385605 0)
(0.2095875660257865 -0.04262635043776499 0)
(0.2147998370111438 -0.04335386382608924 0)
(0.2201002480323362 -0.04397915298926441 0)
(0.2254290021199524 -0.04451309840788309 0)
(0.2308345668080104 -0.04497805981882656 0)
(0.2362884624499997 -0.04540501116975831 0)
(0.2418404272412039 -0.04583607232614678 0)
(0.2474731509417508 -0.04629157767427149 0)
(0.1448135646270407 -0.03261569778074234 0)
(0.1497230876550593 -0.03448637194677962 0)
(0.1547868709932601 -0.03627307709435104 0)
(0.1597702025100437 -0.03806876007836142 0)
(0.1647725931287933 -0.03981765354310381 0)
(0.1698108104526838 -0.04148570920689026 0)
(0.1748822060163504 -0.04306061562709355 0)
(0.1799898344948942 -0.04454294806986032 0)
(0.1851403051673722 -0.0459223231924493 0)
(0.19037190771388 -0.04717788766969583 0)
(0.1957066517270616 -0.04830498955975357 0)
(0.201126976546419 -0.04930737163982831 0)
(0.2066107555813815 -0.05018735181542674 0)
(0.2121615758987646 -0.05095245920921602 0)
(0.2177701257868705 -0.0516132295735446 0)
(0.2233912951998686 -0.05218648846053391 0)
(0.2290982034807565 -0.05269854332442633 0)
(0.2348245326064172 -0.05317564582617747 0)
(0.2406436584756149 -0.05364678616629151 0)
(0.2464953293023601 -0.05412815585324676 0)
(0.1365753358026638 -0.03887042900735085 0)
(0.1419036571833267 -0.04094835660280923 0)
(0.1474052248340651 -0.04291820442932795 0)
(0.1528288508178782 -0.04487827547887223 0)
(0.1582616728437949 -0.04674876007983782 0)
(0.1637566996902151 -0.04851843348814078 0)
(0.1692694654579725 -0.05016694168378667 0)
(0.1748062822716396 -0.05171224702616956 0)
(0.1804000877298345 -0.05313960524837037 0)
(0.1860797963247571 -0.0544281853007441 0)
(0.1918351284065165 -0.05558006108269599 0)
(0.1976313974117671 -0.05660460885795765 0)
(0.2034652362148979 -0.05750880146226742 0)
(0.2093637599535839 -0.05830158213232748 0)
(0.2153025300039401 -0.05899337791177008 0)
(0.2212528840888539 -0.05960065055866248 0)
(0.2272956434775259 -0.06014347598071131 0)
(0.233321526762153 -0.06063781434161741 0)
(0.2394420139850424 -0.06110274832538694 0)
(0.245557739404911 -0.06157061220859659 0)
(0.1275934351966526 -0.04581483107841005 0)
(0.1333846453257263 -0.048050149967127 0)
(0.1394178565461748 -0.05007054755375642 0)
(0.1454096088051529 -0.05202445749152772 0)
(0.1514321179003723 -0.05386398826446943 0)
(0.1574969805375344 -0.05558653778867682 0)
(0.1635492183649472 -0.05719394755352269 0)
(0.1695813966142123 -0.05870369421491846 0)
(0.1756340741439815 -0.06009770944513119 0)
(0.1817441669753327 -0.06135948664995985 0)
(0.1879047685602669 -0.06249473524662699 0)
(0.1940798910543063 -0.06351557542630726 0)
(0.2002722466942347 -0.06443208791914125 0)
(0.2065190174346163 -0.06525017911347919 0)
(0.2127839960282649 -0.06597337648839217 0)
(0.2190652716424303 -0.06661260259823554 0)
(0.2254546129132068 -0.06717741788985405 0)
(0.2318066946949009 -0.06767031350013124 0)
(0.2382505335045421 -0.06811228735700385 0)
(0.244662104918268 -0.06856187162243127 0)
(0.118093937546241 -0.05423384054727269 0)
(0.1245505705624782 -0.05606555246312169 0)
(0.1313899415339285 -0.05769560717390419 0)
(0.1381620050827929 -0.05931686188998334 0)
(0.14488300853787 -0.06089741409976911 0)
(0.1515489014902106 -0.06242233957547054 0)
(0.1581323838081757 -0.06389004907560621 0)
(0.1646502953223534 -0.06529151388703111 0)
(0.17115214979388 -0.06660135145597187 0)
(0.177674593691817 -0.06780399321866828 0)
(0.184211984925278 -0.06890361561882766 0)
(0.1907329599607212 -0.06991168318832652 0)
(0.197250914382088 -0.07083760728837653 0)
(0.2038081722288493 -0.07168119491462835 0)
(0.210363037428217 -0.07243769017786904 0)
(0.2169486837725559 -0.07311143782730763 0)
(0.2236504285221303 -0.07370152326750179 0)
(0.2303066088505225 -0.07420669794043873 0)
(0.2370497461563079 -0.07465832365297685 0)
(0.2437663466805361 -0.07511903268075285 0)
(0.1085464837230277 -0.06613551622706525 0)
(0.1165808615571616 -0.065406379008148 0)
(0.1245750374532472 -0.0659136987569941 0)
(0.1322934019249767 -0.06686527279291181 0)
(0.1397284084108049 -0.06799652129190258 0)
(0.1469440400918787 -0.06921197199591252 0)
(0.1539735710578786 -0.07045163702733734 0)
(0.1608779286162563 -0.07167162752268599 0)
(0.1677274390654906 -0.07284006557187954 0)
(0.1745654536724869 -0.07393689272777394 0)
(0.1813828778822603 -0.07495849564380642 0)
(0.1881493917440891 -0.07591226373721453 0)
(0.194900656361192 -0.07680534181183525 0)
(0.2016866982688091 -0.07763135985753354 0)
(0.2084446608706929 -0.07837878210148158 0)
(0.2152353451032337 -0.07904895915250625 0)
(0.2221322464266367 -0.07963608977869308 0)
(0.2289782209272382 -0.08015054784573276 0)
(0.2358714598701342 -0.08062903415651129 0)
(0.2427537297184353 -0.08109391914153083 0)
(0.1035440914116934 -0.07655285696635496 0)
(0.1118639717544327 -0.07519836487649084 0)
(0.1199946523413114 -0.07482262606298867 0)
(0.1280300629723961 -0.07506744531637369 0)
(0.135840394693385 -0.07567873698656789 0)
(0.1434163135043479 -0.07651179043876476 0)
(0.1507796596202753 -0.07745047250731607 0)
(0.1579882921263181 -0.07842765322793997 0)
(0.1651084706775088 -0.07940317372106993 0)
(0.172183900008996 -0.08034675085468962 0)
(0.1792029531538793 -0.08124300622632286 0)
(0.1861375004147703 -0.08209301116410936 0)
(0.193045634464914 -0.08290124666428972 0)
(0.1999850133001884 -0.08365571409339216 0)
(0.2068774679839069 -0.08434211090268424 0)
(0.2138008041922013 -0.08496465994315652 0)
(0.2207952576688408 -0.08552044226924237 0)
(0.227745940784178 -0.08603200687069729 0)
(0.2346799020301486 -0.08651796938666259 0)
(0.241594094063294 -0.08692280252402398 0)
(0.100122557033295 -0.08526493224240383 0)
(0.1084821846392372 -0.08414296684909484 0)
(0.1166323382054183 -0.08351371448783201 0)
(0.1247269703764867 -0.08335794667001171 0)
(0.1326826895552905 -0.08358691790580958 0)
(0.1404527327490436 -0.08408851481504841 0)
(0.1480353373811365 -0.08474322303870693 0)
(0.1554649193098614 -0.08548193489484103 0)
(0.1627924645655114 -0.0862608340174498 0)
(0.1700548133152455 -0.08704204016225131 0)
(0.1772313433456359 -0.08779925436743168 0)
(0.1842916288987227 -0.08852688749912892 0)
(0.1913154076524118 -0.08922853536082256 0)
(0.1983679371625347 -0.08988960233075076 0)
(0.2053595821055058 -0.090497256029151 0)
(0.2123812373154457 -0.09106142294185639 0)
(0.2194263084340798 -0.09158633269438775 0)
(0.22644637324864 -0.09208869723944536 0)
(0.2333993977419462 -0.09254182927765535 0)
(0.2403188047713045 -0.0928393939287072 0)
(0.09741491161340575 -0.09321678569740327 0)
(0.1057633126656934 -0.0923673851640007 0)
(0.1139195209298004 -0.0917597918902872 0)
(0.1220183151094077 -0.09145381214577079 0)
(0.1300245232441344 -0.0914604252909188 0)
(0.1378969895693418 -0.091719572107577 0)
(0.1456151703609145 -0.09214383202193134 0)
(0.1531887684764511 -0.09267442676976491 0)
(0.1606576874722183 -0.09326919531395535 0)
(0.1680560460744077 -0.09388987504111375 0)
(0.1753532364711826 -0.0945047142714181 0)
(0.1825125278177422 -0.0951050284412014 0)
(0.1896307021283539 -0.09569701711129423 0)
(0.1967745170822494 -0.0962649271023777 0)
(0.2038452936462748 -0.09679791279669131 0)
(0.2109497103114033 -0.09730880906987692 0)
(0.2180194743978541 -0.09780179787515618 0)
(0.225080670364757 -0.09827085911661466 0)
(0.2320482285142581 -0.09864393122460763 0)
(0.2389713990825142 -0.09885311834979807 0)
(0.09515131968616888 -0.1007621999464386 0)
(0.1034770254264094 -0.1001358244745403 0)
(0.1116291796835257 -0.09964149186119457 0)
(0.1197319962456712 -0.09931702614755702 0)
(0.1277611398485325 -0.09921056170558559 0)
(0.1356939079443172 -0.09931095688809455 0)
(0.1434952227758612 -0.09956625507169395 0)
(0.151155433602906 -0.09992810096378749 0)
(0.1587090280688248 -0.1003603180816205 0)
(0.1661943595928887 -0.1008324946945312 0)
(0.1735754635772529 -0.10131311290893 0)
(0.1808094739010584 -0.1017944602918226 0)
(0.1880054663763703 -0.1022890298318707 0)
(0.1952224181317308 -0.1027797375998523 0)
(0.2023516752739088 -0.1032536193840395 0)
(0.209524145863718 -0.1037195289113571 0)
(0.2166102360735773 -0.1041707887267827 0)
(0.2236911921847557 -0.1045771936740847 0)
(0.2306666256318933 -0.1048609599887608 0)
(0.2375929765423877 -0.1050620505428605 0)
(0.09318359625948355 -0.1080788372020895 0)
(0.1014795283347512 -0.1076405851622124 0)
(0.1096418062575787 -0.1072630305610972 0)
(0.1177484998003116 -0.106974837294114 0)
(0.1257908560795164 -0.1068272887742084 0)
(0.1337617695158332 -0.1068412017885454 0)
(0.1416169399982323 -0.1069886604583523 0)
(0.1493315540347641 -0.1072286791930251 0)
(0.1569360337275725 -0.107532340191635 0)
(0.1644765550841325 -0.1078819396627107 0)
(0.1719164403778757 -0.1082487856060364 0)
(0.1792084189622511 -0.1086283667515073 0)
(0.1864696608253069 -0.1090410831238222 0)
(0.1937450669445465 -0.1094687111136424 0)
(0.2009147820123276 -0.1098919258346729 0)
(0.2081274772326234 -0.110306804166001 0)
(0.21522244230229 -0.1106956108920075 0)
(0.2223097945577419 -0.1110231833671491 0)
(0.2292880813932336 -0.1112586819226639 0)
(0.2362183026535207 -0.1114939358267461 0)
(0.09143508595473224 -0.1152622487190638 0)
(0.09971520389464368 -0.1149726299903735 0)
(0.1079016487987879 -0.1146948855050645 0)
(0.1160082707344613 -0.1144687826895814 0)
(0.1240551572306672 -0.1143339487169967 0)
(0.1320460258081803 -0.1143189085051545 0)
(0.1399354458841918 -0.1144091178276123 0)
(0.1476873325220347 -0.1145703776018872 0)
(0.1553274227849879 -0.114780545934672 0)
(0.1629088693305136 -0.115037713905458 0)
(0.170395131934745 -0.1153156746888178 0)
(0.1777346214507156 -0.115612612823178 0)
(0.1850461032576291 -0.1159528868280352 0)
(0.1923584708955318 -0.116316790203615 0)
(0.1995551901841432 -0.1166803973598234 0)
(0.2067844241797805 -0.1170255318269052 0)
(0.2138776092449023 -0.1173347698101034 0)
(0.2209625813269977 -0.1175941349235365 0)
(0.2279415619571053 -0.1178283053859021 0)
(0.2348771299865059 -0.1180328107495172 0)
(0.08987061663942147 -0.1223442507756795 0)
(0.09816121425340477 -0.1221602832397241 0)
(0.106369415293109 -0.1219741172768018 0)
(0.1144770032338411 -0.1218240050138727 0)
(0.1225218715256429 -0.1217328894368449 0)
(0.1305188963893754 -0.1217195602784674 0)
(0.1384289066112481 -0.1217794887208376 0)
(0.1462086474553133 -0.1218879779812412 0)
(0.153879062812527 -0.1220286598662419 0)
(0.1614964496795926 -0.1222194644668785 0)
(0.1690221957874786 -0.1224345071751214 0)
(0.1764020928738004 -0.1226724415232701 0)
(0.1837515364451036 -0.1229524306602833 0)
(0.1910769106042104 -0.1232504011182123 0)
(0.1982814594529471 -0.1235443917115481 0)
(0.2055113298070071 -0.1238139167260859 0)
(0.2125963269125551 -0.124054853326444 0)
(0.2196750009697546 -0.1242786579180949 0)
(0.2266536356481296 -0.124506846989991 0)
(0.2335938620656624 -0.124604211139131 0)
(0.08847495462490038 -0.1293390408392716 0)
(0.09678653163605345 -0.1292340470306599 0)
(0.1050092810723249 -0.1291295574544402 0)
(0.113120696426632 -0.1290500510587002 0)
(0.1211605968743993 -0.1290028911398581 0)
(0.1291582249130641 -0.1289945626060176 0)
(0.1370834164036137 -0.1290327003793491 0)
(0.1448887852562943 -0.1291053584550219 0)
(0.152590900523891 -0.1291980637348436 0)
(0.1602435921316018 -0.1293512206368351 0)
(0.1678007660515997 -0.1295354431401114 0)
(0.1752080936843973 -0.1297465411649286 0)
(0.1825818929845369 -0.1299896795828625 0)
(0.1899051186139508 -0.1302340435174296 0)
(0.1971018226417247 -0.1304665941193523 0)
(0.2043232142391016 -0.1306807653845122 0)
(0.2113982286528389 -0.1308872476179367 0)
(0.2184687358657042 -0.1310960671459888 0)
(0.2254439520653928 -0.1312605063404785 0)
(0.2323846246471242 -0.1313001346452751 0)
(0.08724552656007337 -0.1362789840249107 0)
(0.09556996932024778 -0.1362457319608511 0)
(0.1037997686224867 -0.1362002030481363 0)
(0.1119105747462773 -0.1361679648876589 0)
(0.1199438929648219 -0.1361493732127513 0)
(0.1279431327652474 -0.1361446843400663 0)
(0.1358845058321951 -0.1361741425281878 0)
(0.1437167662881114 -0.1362378195705749 0)
(0.1514523197174046 -0.1363141936097189 0)
(0.1591388319201537 -0.1364598893503975 0)
(0.1667191342221074 -0.1366403628594826 0)
(0.1741399957205179 -0.1368464956836144 0)
(0.1815247091747663 -0.1370684985468627 0)
(0.1888403756955896 -0.1372725412465673 0)
(0.1960232864822067 -0.1374589821024689 0)
(0.2032331107238293 -0.1376390255888686 0)
(0.2102962167430809 -0.1378254359633472 0)
(0.2173541118321083 -0.1379952156314308 0)
(0.2243203816463325 -0.1380603241501792 0)
(0.2312569125203344 -0.1381404540624113 0)
(0.08617139271961506 -0.1432063945000185 0)
(0.09449846371531968 -0.1432324058506364 0)
(0.1027228913237258 -0.1432203232465244 0)
(0.1108240930714018 -0.1432140770213876 0)
(0.1188523837592849 -0.1432171867821272 0)
(0.1268591138166984 -0.14322544731404 0)
(0.1348211060350857 -0.143265866462783 0)
(0.1426807093948136 -0.1433452120400549 0)
(0.150446431994033 -0.1434320968378625 0)
(0.1581602428328021 -0.1435791650900386 0)
(0.1657554019310982 -0.1437544031183113 0)
(0.1731818240608601 -0.1439472822081306 0)
(0.1805710503201058 -0.1441419843920295 0)
(0.1878809378947761 -0.144310748976461 0)
(0.1950514402043367 -0.1444645995132814 0)
(0.2022443530821361 -0.1446193625142587 0)
(0.2092881885696794 -0.1447676421604096 0)
(0.2163289480358268 -0.1448603239488623 0)
(0.2232832786390709 -0.14488673637963 0)
(0.2302161828956504 -0.1449721427407858 0)
(0.08522313752611806 -0.1501324249874752 0)
(0.09354655697341913 -0.1501807568452099 0)
(0.1017548328469113 -0.1501930990116225 0)
(0.1098467256408372 -0.1502075319687648 0)
(0.1178800839524798 -0.1502325472512925 0)
(0.1259041198710475 -0.1502565476518037 0)
(0.1338906685897957 -0.1503099147625645 0)
(0.1417727983575895 -0.1503986718518603 0)
(0.1495574489593264 -0.1505058836867922 0)
(0.1572875737114222 -0.1506503146994596 0)
(0.1648916770428104 -0.1508124590919856 0)
(0.1723232722986083 -0.1509868237207934 0)
(0.1797176544807404 -0.1511600575942094 0)
(0.1870239064332709 -0.1513151718081528 0)
(0.1941791712248488 -0.1514626692153617 0)
(0.2013483970949075 -0.1516012469571165 0)
(0.2083676009286318 -0.1516994890706675 0)
(0.2153901174493198 -0.1517328723431767 0)
(0.2223373079058434 -0.1518113843676542 0)
(0.2292731462612366 -0.1518197740433651 0)
(0.08436724210895809 -0.157028059379436 0)
(0.0926831493862411 -0.1570761602269986 0)
(0.1008809305826759 -0.1571207659984786 0)
(0.1089808205444921 -0.1571548184240819 0)
(0.1170358771571428 -0.1571928268678107 0)
(0.12508581178366 -0.1572184720124729 0)
(0.1330942075544305 -0.1572809216188016 0)
(0.1409859572488099 -0.1573665968553471 0)
(0.1487719483997822 -0.1575081847292814 0)
(0.1565066374161502 -0.1576707192893992 0)
(0.1641185477868353 -0.157837907875526 0)
(0.1715592258509286 -0.1580115368214354 0)
(0.1789588628097066 -0.158182365954485 0)
(0.1862569566861448 -0.1583400571958294 0)
(0.1933894977935902 -0.158485613194512 0)
(0.2005305538060027 -0.1585993592430476 0)
(0.2075289861337086 -0.1586583027236902 0)
(0.214544850165493 -0.1587010254177259 0)
(0.2214962656717056 -0.1587970520294671 0)
(0.2284387415168213 -0.1587944037068904 0)
(0.08358334365637453 -0.1638977081050468 0)
(0.09189450245850582 -0.1639774305672072 0)
(0.10010748437132 -0.1640485135825115 0)
(0.1082396834702544 -0.1640881648135999 0)
(0.1163328615847626 -0.1641274140755181 0)
(0.1244092685936962 -0.164155502451513 0)
(0.132422567091129 -0.1642480541211378 0)
(0.1403053312223417 -0.1643453477516946 0)
(0.1480788938276621 -0.164512044695654 0)
(0.1558124807360154 -0.164688929216432 0)
(0.1634342672264996 -0.164851440980687 0)
(0.1708846310138641 -0.1650123563262524 0)
(0.1782814599878426 -0.1651736141471815 0)
(0.185559903432268 -0.1653246488951436 0)
(0.1926653892970324 -0.1654521143573519 0)
(0.19978757859122 -0.1655354263368177 0)
(0.2067843618615233 -0.1655909067268287 0)
(0.2138109597393704 -0.1656907739374607 0)
(0.2207711717442851 -0.1657103836008857 0)
(0.2277102220514662 -0.1657538147646285 0)
(0.08287378440068643 -0.1708322297455843 0)
(0.09119532059438906 -0.1709342404485475 0)
(0.0994559396699711 -0.170997819444994 0)
(0.1076397245831711 -0.1710319310391248 0)
(0.1157713046430342 -0.17108109560514 0)
(0.1238597408457158 -0.1711343860820903 0)
(0.1318582566671645 -0.171243483159214 0)
(0.1397178606097037 -0.1713452978668259 0)
(0.1474797234874511 -0.1714783256698241 0)
(0.1552176736453244 -0.1716347226189061 0)
(0.1628478461957417 -0.1718002925127092 0)
(0.1702944429892533 -0.1719737223805155 0)
(0.1776699197075299 -0.1721454261735191 0)
(0.1849206304039009 -0.1722948907198207 0)
(0.1920115998329537 -0.1724068908592358 0)
(0.1991417430525534 -0.1724872792929962 0)
(0.2061570139700654 -0.172579769918179 0)
(0.2131924171532396 -0.1726917442341966 0)
(0.2201480290565055 -0.1726965807203184 0)
(0.227076313249763 -0.1727096348353305 0)
(0.08226570867707804 -0.1778548058137714 0)
(0.09062133827337478 -0.1778944696998367 0)
(0.09894815066835681 -0.1779445304292982 0)
(0.1071829223893549 -0.1779927338674869 0)
(0.1153358997437096 -0.1780478823391017 0)
(0.1234164920627492 -0.1781251043580764 0)
(0.1313933905536756 -0.1782190506393182 0)
(0.1392325796521636 -0.178341111755603 0)
(0.1469897075959375 -0.1784634444932041 0)
(0.1547309940230953 -0.1785946790826251 0)
(0.1623521497575522 -0.1787471410150909 0)
(0.1697696766645491 -0.178917228710112 0)
(0.1771131571903436 -0.1790830659022569 0)
(0.1843539871246542 -0.1792205584464962 0)
(0.1914625855393006 -0.179330236263963 0)
(0.1986192646302377 -0.1794438864818531 0)
(0.2056454366679507 -0.1795789997161354 0)
(0.2126636993414736 -0.1796206492723452 0)
(0.2195999912439194 -0.1796974553836069 0)
(0.2265449275907374 -0.1797069326828248 0)
(0.08180255308285773 -0.1847988846198138 0)
(0.09020638981028671 -0.1848531299737893 0)
(0.09859220714187503 -0.184913221089296 0)
(0.1068541623774379 -0.1849780425174659 0)
(0.1150007281389235 -0.1850266295718146 0)
(0.1230559816898627 -0.1851049437693916 0)
(0.1310186307992936 -0.1851908770168188 0)
(0.1388613586435673 -0.1852949870362034 0)
(0.146622588749684 -0.1854025822526326 0)
(0.1543463560404474 -0.1855257233776701 0)
(0.1619259506035102 -0.1856717900906961 0)
(0.1693026251776888 -0.1858281479166616 0)
(0.1766369795879198 -0.1859736917839238 0)
(0.1839067712190014 -0.1861031672420621 0)
(0.1910496563147241 -0.1862369621134653 0)
(0.1982064268774851 -0.1863879140527508 0)
(0.2052105423066318 -0.1865166743033074 0)
(0.2122176494694945 -0.1865465928665827 0)
(0.2191485778523707 -0.1866141383067729 0)
(0.2261300868098178 -0.1866572391363726 0)
(0.08151482362726464 -0.191734268336676 0)
(0.08995606498244756 -0.1918293887453059 0)
(0.0983698075809019 -0.1918758714905666 0)
(0.1066197948671973 -0.1919331928238009 0)
(0.1147339749408002 -0.1920188378161072 0)
(0.1227761136556028 -0.1920829421179446 0)
(0.1307539722127279 -0.1921516631270586 0)
(0.1386146288611014 -0.192232563683286 0)
(0.1463605623313722 -0.1923307826089259 0)
(0.1540313849275645 -0.1924514016830676 0)
(0.1615586607018308 -0.1925873812477615 0)
(0.1689293349958775 -0.1927281111501801 0)
(0.1763027449236986 -0.1928659134352528 0)
(0.1836083010506343 -0.1930055863837266 0)
(0.1907449946522541 -0.1931663863419291 0)
(0.1978532599137472 -0.1933255100961861 0)
(0.2048339677957811 -0.1934050547057669 0)
(0.2119341156364202 -0.1935251985273622 0)
(0.2189144099166475 -0.1935577991968455 0)
(0.2257403359305609 -0.1936063639220628 0)
(0.08138065108550772 -0.1987633013631691 0)
(0.08983907705186553 -0.1987934492797016 0)
(0.09822792639537936 -0.1988340705022719 0)
(0.1064408559009204 -0.1988975804035463 0)
(0.1145379533177011 -0.1989614786858994 0)
(0.1226028400105562 -0.1990249581938937 0)
(0.1306136994224719 -0.1990877273286481 0)
(0.1384662022304262 -0.1991536242490213 0)
(0.1461522935531554 -0.199236427163575 0)
(0.1537651680839403 -0.1993436894427562 0)
(0.1612985346929124 -0.199466887318021 0)
(0.1687334701162588 -0.1995954658230721 0)
(0.1761382976185824 -0.1997338925230054 0)
(0.1833718757471254 -0.1998903142170105 0)
(0.190448265070248 -0.2000566880179601 0)
(0.1976541890045103 -0.2002019629533854 0)
(0.2047026671261785 -0.2002858278158932 0)
(0.2117203140882302 -0.2003798831455638 0)
(0.2187334019108186 -0.2004231531064412 0)
(0.2255788672201181 -0.2004877251815576 0)
(0.08135881429232086 -0.2056768221806664 0)
(0.08979421605682067 -0.20574402283918 0)
(0.09812342297861572 -0.2057935986938847 0)
(0.1063127287607148 -0.2058463323026001 0)
(0.1144482226533207 -0.2059025658043747 0)
(0.1225592734148148 -0.2059663200900445 0)
(0.1305550070003024 -0.2060282624379409 0)
(0.1383337684197533 -0.206095692373533 0)
(0.1459823409667609 -0.2061786718113411 0)
(0.1536592152710847 -0.2062785861232847 0)
(0.1612566436914035 -0.2063952715837288 0)
(0.1686292037766412 -0.2065228541740418 0)
(0.1759682661579775 -0.2066634593976029 0)
(0.183275145328311 -0.2068265459835221 0)
(0.1903769833716165 -0.2069770953402685 0)
(0.1975181461964011 -0.2071003561685588 0)
(0.2046048057538369 -0.2072755418490294 0)
(0.211624635819945 -0.2072473533267893 0)
(0.218671997628919 -0.2072676461618927 0)
(0.2254889949886126 -0.2072109611219654 0)
(0.005627129693227292 -0.08979560725626014 0)
(0.0168767906921718 -0.08931301677705812 0)
(0.02808963801491896 -0.08801321427209055 0)
(0.03924017977916208 -0.08635658569307317 0)
(0.05025597907412493 -0.08413364052794056 0)
(0.06107327628043303 -0.08163438524760103 0)
(0.07158761023343577 -0.07888377644243201 0)
(0.08168116289914253 -0.0759196334293233 0)
(0.09121734310537102 -0.07279224412492583 0)
(0.09961815345312917 -0.06945214983554489 0)
(0.005573560762372674 -0.09387997381805013 0)
(0.01670770557832424 -0.09351628551026273 0)
(0.0277702820291398 -0.0923847500975904 0)
(0.0387146782630151 -0.09103649803200151 0)
(0.0494489804400539 -0.08920299645193884 0)
(0.0598599796543445 -0.08715143685346012 0)
(0.06979537991594176 -0.08494104534068835 0)
(0.07910911722122728 -0.08261720566362031 0)
(0.08761014900526563 -0.08033424875345724 0)
(0.09522559066529002 -0.078271587269648 0)
(0.005458667415170686 -0.09837933549840472 0)
(0.01635479087128475 -0.0981515544165764 0)
(0.02714492005235073 -0.09720057985924481 0)
(0.03776425874291556 -0.09615506711474679 0)
(0.04811704364642291 -0.09471882861812007 0)
(0.05805363452237655 -0.09309641848626335 0)
(0.06742185896193467 -0.09138136866352785 0)
(0.07613437987940953 -0.08960120555014844 0)
(0.08417987933712395 -0.0878981938893592 0)
(0.09186126261346055 -0.08641237849473823 0)
(0.005301671773966003 -0.103241735542747 0)
(0.01589307316391748 -0.1031271716244239 0)
(0.02637038662121163 -0.1023359103536799 0)
(0.0366485649699191 -0.1015297611963388 0)
(0.04663238279579569 -0.1004270603074995 0)
(0.05616015671059683 -0.09913130746572488 0)
(0.06512937801121525 -0.09779431807389909 0)
(0.07350408279354423 -0.09642604701088475 0)
(0.08143376168505957 -0.095125713347323 0)
(0.08923592315229979 -0.09401449253689201 0)
(0.005131583001483721 -0.1084061736088735 0)
(0.01536903518415003 -0.1083908829347285 0)
(0.02551552904473374 -0.1077424767296688 0)
(0.03546140950067102 -0.1071126316932192 0)
(0.045102167247733 -0.1062828516886871 0)
(0.0542974590942079 -0.1052524620744717 0)
(0.06298640194916738 -0.1042152787316383 0)
(0.07119660277694968 -0.1031765271369764 0)
(0.07913156645313428 -0.1021678549049529 0)
(0.08702291365552489 -0.1013300855069138 0)
(0.004959056817287095 -0.113835276959111 0)
(0.01483323180121212 -0.1138873056847975 0)
(0.02464463839853714 -0.1133765477489617 0)
(0.03427150826487881 -0.1128800592372946 0)
(0.04359909891376802 -0.1122708056010079 0)
(0.05252947705552509 -0.11147824758303 0)
(0.06102256116564825 -0.1106749610219156 0)
(0.06915204140221734 -0.1098896218842302 0)
(0.07711614799144689 -0.1091055820284041 0)
(0.08506725963578939 -0.108480281643348 0)
(0.004772333888100958 -0.1194989105143635 0)
(0.01430163724184935 -0.1195809519696314 0)
(0.02378368656442649 -0.1192191279492022 0)
(0.03310454048063941 -0.1188182632629519 0)
(0.04215674308344503 -0.1183687734290812 0)
(0.05086364543023636 -0.1177837676559913 0)
(0.05922347460253907 -0.1171697316430594 0)
(0.06731226339554924 -0.1165753264212764 0)
(0.07530116003255381 -0.1159737111615585 0)
(0.08330334952739346 -0.1155129989403842 0)
(0.004588862158860041 -0.1253716239128189 0)
(0.01379252347337497 -0.1254459035196731 0)
(0.02295379522042457 -0.1252246096124541 0)
(0.03198425678741755 -0.1248914551630597 0)
(0.040798610796593 -0.1245594822405808 0)
(0.04931227618123583 -0.1241548871687453 0)
(0.05756305449902495 -0.1237003172724667 0)
(0.06563519344155774 -0.1232354639472084 0)
(0.0736570513169115 -0.1227856361584188 0)
(0.08171624109772167 -0.1224579799143631 0)
(0.004433760515805705 -0.1314279108388965 0)
(0.01332155506402151 -0.1314682819167131 0)
(0.02217105701839352 -0.1313562676074572 0)
(0.03092709830649291 -0.1310885223681358 0)
(0.03951922288793817 -0.1308546666939048 0)
(0.04787465839434556 -0.1305931772961526 0)
(0.05603825066122412 -0.1302690775448133 0)
(0.06411107381776592 -0.1298943741207646 0)
(0.07217878522070995 -0.1295793269085946 0)
(0.08030281360587521 -0.1293656240292575 0)
(0.004296202131007264 -0.1376552493523142 0)
(0.01287556571276471 -0.1376446584401958 0)
(0.02143084576766734 -0.1376050529468966 0)
(0.02993539499268494 -0.1374159837035017 0)
(0.03831491414638508 -0.1372714766388733 0)
(0.04654403962081377 -0.1371050285137345 0)
(0.05465050215919144 -0.1368839893004485 0)
(0.06273641599464784 -0.1366044951625278 0)
(0.07085774301339981 -0.1364046415678453 0)
(0.07905417194799626 -0.1362754290945202 0)
(0.004155854614793291 -0.1440295579390277 0)
(0.01244777860851058 -0.143964395715869 0)
(0.02073716403593117 -0.1439715766363904 0)
(0.02901249375130511 -0.1438672998924821 0)
(0.03719612952335983 -0.1438029575783869 0)
(0.04531862633244042 -0.1436941242272764 0)
(0.05339173076764216 -0.1435533653604008 0)
(0.06149905478175779 -0.1433863275666671 0)
(0.06967838465302109 -0.1432557988404777 0)
(0.0779525262124955 -0.1431725205909041 0)
(0.00401671781142993 -0.1505083865005938 0)
(0.01205631065008171 -0.1504079455216678 0)
(0.02010800569592937 -0.1504513478160131 0)
(0.0281664244234755 -0.1504189604593925 0)
(0.0361752429918553 -0.1504130271192589 0)
(0.04420258846055886 -0.1503475347858879 0)
(0.05225394364724116 -0.1502730804076612 0)
(0.06038647200707803 -0.1501943242082107 0)
(0.06862281212535222 -0.1500825792099419 0)
(0.07696990972575052 -0.1500365943599431 0)
(0.003896721108384174 -0.1570614592301253 0)
(0.01171821976235134 -0.1569555238794656 0)
(0.019551163836943 -0.1570257463657017 0)
(0.02740028534615152 -0.157043767789525 0)
(0.03525616525776265 -0.1570690231923855 0)
(0.04319945884335252 -0.1570474948952136 0)
(0.05123240804247375 -0.1570403964537617 0)
(0.05938642003278681 -0.156997053238161 0)
(0.06766736040945583 -0.1569060369071255 0)
(0.07607125066664422 -0.1569148862578407 0)
(0.003802259439119281 -0.1636840121412233 0)
(0.01142691040059651 -0.1635915382350147 0)
(0.01905325672313965 -0.1636697860921095 0)
(0.02670740032909261 -0.1637296688649118 0)
(0.03443315917002697 -0.1637856835370528 0)
(0.04230549594878016 -0.1638122838466929 0)
(0.05031897600778484 -0.1638568153004648 0)
(0.05848211063536622 -0.1638222196845557 0)
(0.0667867083456993 -0.163801496149014 0)
(0.07523257512748671 -0.1638331387455535 0)
(0.003723230412407057 -0.1703786979271014 0)
(0.011160475183915 -0.1703146379375046 0)
(0.01859409742804814 -0.1703876880700307 0)
(0.02607863940342668 -0.1704892603221268 0)
(0.0336981297268224 -0.1705834693024808 0)
(0.04151308824089468 -0.1706531206630869 0)
(0.04950465283602545 -0.1706879829123703 0)
(0.05766180551493284 -0.1706631878384514 0)
(0.06597474721733829 -0.1707248299421202 0)
(0.07446290422485234 -0.1707427658750958 0)
(0.003646437390351653 -0.1771467885305456 0)
(0.01090361354355869 -0.1771383464668874 0)
(0.01816538983156303 -0.1772041989946463 0)
(0.02551315004520191 -0.177326674971891 0)
(0.03305109273321342 -0.1774168281298674 0)
(0.04082148681843949 -0.1774925347127859 0)
(0.04878948319804306 -0.1775189516105145 0)
(0.05693200763204036 -0.1775683745868113 0)
(0.06525424783521726 -0.1776642132765929 0)
(0.07379775467900462 -0.1777381100800537 0)
(0.003567404589071117 -0.1839983989281841 0)
(0.01065835998650348 -0.184058232968025 0)
(0.01777596864170096 -0.1840900775569828 0)
(0.02502157775295331 -0.1841984334683953 0)
(0.03250316786779688 -0.1843064341050331 0)
(0.04023979894130385 -0.1843858894954518 0)
(0.04818000842397347 -0.1844326156541665 0)
(0.0563075728425757 -0.1845537202938555 0)
(0.06465498813664106 -0.1846080718705422 0)
(0.07327525271636474 -0.184740292721339 0)
(0.003491033959984626 -0.1909358803480994 0)
(0.01043916808250066 -0.191041336141392 0)
(0.01744502267378494 -0.1910530765451098 0)
(0.02462048263680992 -0.1911335337491881 0)
(0.032064978074076 -0.1912083251319785 0)
(0.03977446198582246 -0.1912748045554288 0)
(0.04768297697822338 -0.1913582767860579 0)
(0.05580480656944275 -0.1914881834680482 0)
(0.06420639235274249 -0.1915782448079865 0)
(0.07293955342608183 -0.1916862636403891 0)
(0.003425925571581117 -0.197938306506727 0)
(0.01026266623834879 -0.1980724807845542 0)
(0.0171914056308895 -0.1980965139999766 0)
(0.02432701163061835 -0.1981430597912725 0)
(0.03174084156414704 -0.1981886649088452 0)
(0.03941764251724584 -0.1982616075463881 0)
(0.04730072969361885 -0.1983819004984368 0)
(0.05543365674218492 -0.1984725900386949 0)
(0.063902893970256 -0.1986096614047213 0)
(0.07276234927227286 -0.1987159875106818 0)
(0.003379865131597825 -0.2050465264720885 0)
(0.01014150259826382 -0.2051385180708036 0)
(0.01701802800007969 -0.2051781104531694 0)
(0.02413140773645459 -0.2051876932371168 0)
(0.03152455598725848 -0.2051990835946405 0)
(0.03916687306329889 -0.2052713916666529 0)
(0.04702958318871486 -0.2053783816608359 0)
(0.05518928960529262 -0.2054604037951805 0)
(0.06374606678469061 -0.2055661078236382 0)
(0.07272102843147209 -0.2056486916043168 0)
)

(0.0570198624288767 -0.01681907510049883 0)
    2, 0.04943563688959506, 0.1574341253768285, 0, 0

1000
(
(0.0570198624288767 -0.01681907510049883 0)
(0.05386421899472901 -0.01742049692191884 0)
(0.05188041635003725 -0.0185927780700767 0)
(0.0507784935544453 -0.02012103232636241 0)
(0.05027433799851186 -0.02192092255771943 0)
(0.05020492474415947 -0.02390329587852713 0)
(0.05046062363169015 -0.02601780538256959 0)
(0.05094241153342714 -0.02829355721991112 0)
(0.05169339941617711 -0.03061146823327086 0)
(0.05220497709452492 -0.03315579224772828 0)
(0.0518109285486132 -0.0184395061720239 0)
(0.04847152374587201 -0.01960523036801684 0)
(0.04631854183882603 -0.02121529368307971 0)
(0.04513392795481234 -0.02306070106949592 0)
(0.04461676601581253 -0.0250851628219528 0)
(0.04450969353500342 -0.02726121958008905 0)
(0.04472576837509019 -0.02952042324134319 0)
(0.0451826779033241 -0.03188982178556871 0)
(0.0459114605185606 -0.03425600894174302 0)
(0.04656347697211412 -0.03689675172954807 0)
(0.04622279378298647 -0.01990051945801964 0)
(0.04285926568275674 -0.02174036633173628 0)
(0.04074575062773125 -0.02378303680725741 0)
(0.03951458669693249 -0.02594166204409839 0)
(0.03896606095203346 -0.02816194838408626 0)
(0.03885451506315452 -0.03046305831810497 0)
(0.03906299505548114 -0.03281679720787943 0)
(0.03953343465521211 -0.03521509908254825 0)
(0.04023862091092955 -0.03757926364189792 0)
(0.0409076792507603 -0.04015996156154412 0)
(0.04046776205814077 -0.02124679001735033 0)
(0.03717466158938353 -0.02376444702698384 0)
(0.03518233796740411 -0.02622565241138719 0)
(0.03399640019086054 -0.02865578578716203 0)
(0.03342734563743797 -0.03107653253707563 0)
(0.03331082553481797 -0.03349749703669262 0)
(0.03350610043526538 -0.03591226658453681 0)
(0.03396402193200398 -0.03832874120417751 0)
(0.03463764018304429 -0.04071077431770571 0)
(0.03531323525899402 -0.04322348150330917 0)
(0.0345793887918029 -0.02244152542874537 0)
(0.03146889939250395 -0.02560319424249789 0)
(0.02962020683762826 -0.02848355210075046 0)
(0.02854880137611475 -0.0311849866360459 0)
(0.02804029045396136 -0.03376635789515739 0)
(0.02793119888004195 -0.03628877764151582 0)
(0.02811034457543569 -0.03877166186004891 0)
(0.02851284841243209 -0.04120740364084251 0)
(0.02912480229999061 -0.04358996461009028 0)
(0.02976307194619288 -0.04604283332172336 0)
(0.02856545835529275 -0.02346490968379862 0)
(0.02575690000979133 -0.02722621415927403 0)
(0.02410699771004853 -0.03046977400767547 0)
(0.02318093173711306 -0.03342538886569502 0)
(0.0227537341845051 -0.03617925663570992 0)
(0.02264646951171487 -0.03880260267122725 0)
(0.02280923923213626 -0.04132886643003134 0)
(0.02317415633383822 -0.04378017807699246 0)
(0.0237148755862157 -0.04616682778000383 0)
(0.02428426328878975 -0.04857702737716009 0)
(0.02239720468187571 -0.0242751579626069 0)
(0.02007104288175279 -0.02857091789688861 0)
(0.01868929872046246 -0.03214367786689854 0)
(0.0179173308644173 -0.03531775639770513 0)
(0.01755816112730845 -0.03821006433612994 0)
(0.01747352121673019 -0.04092847409380179 0)
(0.01762029418555161 -0.04349922719892291 0)
(0.01793311547275338 -0.04597555282648765 0)
(0.01838151801021285 -0.04837524109493833 0)
(0.0188549317574436 -0.05075365972723725 0)
(0.01608642033626401 -0.02488016832362795 0)
(0.01435747903156257 -0.02961468047383387 0)
(0.01331927443131128 -0.03345092340931934 0)
(0.01275410915227047 -0.03678233793039197 0)
(0.01247826812448739 -0.03979257301344694 0)
(0.01241271362472058 -0.04258175056649802 0)
(0.01252524823616937 -0.04519865176380106 0)
(0.01276659037393402 -0.0476952857378393 0)
(0.01310493229476789 -0.05010052212036381 0)
(0.01345576908738663 -0.05244739917190497 0)
(0.009685575357414255 -0.02528135898301354 0)
(0.008634016354352078 -0.03031379597295322 0)
(0.007993283164066315 -0.03434617219162111 0)
(0.007627716293579273 -0.03781221129798663 0)
(0.007449820403061496 -0.04090469774035449 0)
(0.007426291118640137 -0.04372986629542426 0)
(0.007511489400462409 -0.04637673150307502 0)
(0.007653531436591791 -0.04890261720098327 0)
(0.007845513085439713 -0.05133156267952652 0)
(0.008056332086321482 -0.0536769298928098 0)
(0.003240798002695496 -0.02548182008659278 0)
(0.002873256924084678 -0.0306593985585741 0)
(0.002655075718144393 -0.03479798249698135 0)
(0.002544121351587009 -0.03832814873205502 0)
(0.002490862150152314 -0.04145579148577998 0)
(0.00247616030895138 -0.04430603507267431 0)
(0.00250231250004373 -0.04695938050426944 0)
(0.002554909760226334 -0.04947838265729915 0)
(0.00261918126995247 -0.05189943620675052 0)
(0.002684204437422019 -0.05422952106931957 0)
(0.08776034077937613 -0.0007608220482683532 0)
(0.08808929473102155 -0.0006080385196618142 0)
(0.08826267684921962 -0.0005523415384453044 0)
(0.08844643665433917 -0.0005626607720450704 0)
(0.0888231465825895 -0.0006116122987154022 0)
(0.08940281311995145 -0.0006971524761172009 0)
(0.0902223937439485 -0.0007975345145651768 0)
(0.09125944918740181 -0.0009025956618473928 0)
(0.09253438053811665 -0.001024412558248748 0)
(0.09403750759979822 -0.001154041810619601 0)
(0.08715138723797676 -0.002289279560530607 0)
(0.08733381431605433 -0.001844447300427963 0)
(0.08745023545033261 -0.001679860568186807 0)
(0.08757339361363822 -0.00172792305802338 0)
(0.08789168516059434 -0.001886601659522451 0)
(0.08842263542253173 -0.002118482923003668 0)
(0.089216541924568 -0.002411980415079712 0)
(0.09024955171642732 -0.002747468212340268 0)
(0.09152622800741642 -0.003109158283603679 0)
(0.09304076415678995 -0.003483636464346238 0)
(0.08587271778313474 -0.003817376528570733 0)
(0.08579200884558308 -0.00312935359024257 0)
(0.08577032758185368 -0.002881800315012266 0)
(0.08581692455781116 -0.002955314275745192 0)
(0.08605775951116799 -0.003226722388325532 0)
(0.08653684077173589 -0.003630323420596069 0)
(0.08727568434643114 -0.004119552322948312 0)
(0.08823129110965158 -0.004670654869935677 0)
(0.08943332902669111 -0.005266679856165741 0)
(0.09090006227085697 -0.005891805284199135 0)
(0.08398447958724313 -0.005370895591385449 0)
(0.08356723498288035 -0.004489459062584918 0)
(0.08331658381902421 -0.004203318845462821 0)
(0.08325312111098719 -0.004333505374475547 0)
(0.08339501627885236 -0.00471709779393504 0)
(0.08376992262679397 -0.005280029817889835 0)
(0.08443369597641301 -0.005961182812035454 0)
(0.08533817133280544 -0.006735005145981432 0)
(0.08647060855512809 -0.007577375753750488 0)
(0.08791283208304157 -0.008448756792923718 0)
(0.08150219382648265 -0.006948058910164767 0)
(0.0807043023339391 -0.005951931121323342 0)
(0.08017730264933405 -0.005667598479704048 0)
(0.07993985886283572 -0.005883091971465218 0)
(0.07997015034352781 -0.006393693065063133 0)
(0.08024176116946048 -0.007121048091789007 0)
(0.08079574870379252 -0.008002176755957099 0)
(0.08161267454754377 -0.008994251041028899 0)
(0.08263768106708703 -0.01006835451912876 0)
(0.08402567718582281 -0.01116354554197175 0)
(0.07849056594889864 -0.008553590342959577 0)
(0.07726757356731263 -0.007538926330184638 0)
(0.07642861227681197 -0.007308479387086884 0)
(0.07599598987347833 -0.007643499370921658 0)
(0.07591475385311708 -0.008311901416857491 0)
(0.07609091799984558 -0.009215952445633146 0)
(0.07654148829588005 -0.01028535244448236 0)
(0.07725867609936823 -0.01146631927396804 0)
(0.07817315774949422 -0.01274862102951051 0)
(0.07951850486730432 -0.01404946584186216 0)
(0.07497742249262959 -0.01018603920440496 0)
(0.07333214424310668 -0.009268057255431695 0)
(0.07219826277407874 -0.009161548920250054 0)
(0.07156021413423905 -0.009657509759016674 0)
(0.07135053032544671 -0.01050257996341835 0)
(0.0714433638560195 -0.011581641031059 0)
(0.07179876238686141 -0.01282272119246708 0)
(0.07239322187541021 -0.01417285971930425 0)
(0.07316515697868342 -0.0156498503687341 0)
(0.07445101513218245 -0.01713358898094572 0)
(0.07101757138536093 -0.0118311022030126 0)
(0.06894751231286524 -0.01114651206795605 0)
(0.06754885126923196 -0.01124770122172195 0)
(0.06672741593936288 -0.01193667195112362 0)
(0.06639102840617883 -0.01297497040629763 0)
(0.06642468119953331 -0.01423376631080637 0)
[...]
8.458379320116728e-07
result
8.752423927387764e-07
result
9.040588193255234e-07
result
3.207375972410294e-07
result
3.509847152336507e-07
result
3.804574893936545e-07
result
4.106281887442339e-07
result
4.414873029700274e-07
result
4.716686986614913e-07
result
5.017379558283288e-07
result
5.314106588713793e-07
result
5.624108155384785e-07
result
5.921131702618488e-07
result
6.222620297765086e-07
result
6.524444585299821e-07
result
6.822846951976188e-07
result
7.124410300993997e-07
result
7.417702285959841e-07
result
7.711912154974979e-07
result
8.011678705442836e-07
result
8.309568680806517e-07
result
8.599095416888188e-07
result
8.890320773489154e-07
result
3.112646738494711e-07
result
3.401251338350703e-07
result
3.69229600592686e-07
result
3.993403395364324e-07
result
4.293026779238154e-07
result
4.5911730124563e-07
result
4.885608005943031e-07
result
5.179257913955678e-07
result
5.483770594515407e-07
result
5.77812454110782e-07
result
6.071442597515865e-07
result
6.37675107764689e-07
result
6.681278971692484e-07
result
6.978304466445657e-07
result
7.271156888992547e-07
result
7.565554406533428e-07
result
7.860081479612479e-07
result
8.156603162402938e-07
result
8.454465994239946e-07
result
8.738442933492137e-07
result
3.004945353666915e-07
result
3.290185993827922e-07
result
3.577781922004463e-07
result
3.872241486858796e-07
result
4.16680922074825e-07
result
4.460003796804479e-07
result
4.752975243831914e-07
result
5.045654921885469e-07
result
5.345302332586899e-07
result
5.641242333713327e-07
result
5.932143824636507e-07
result
6.227338888024676e-07
result
6.529900014449934e-07
result
6.827313143115162e-07
result
7.121180122963178e-07
result
7.414399997621149e-07
result
7.710359855423796e-07
result
8.008452109889164e-07
result
8.301565605226092e-07
result
8.595133763546793e-07
result
2.893346097827528e-07
result
3.174998241632478e-07
result
3.458956291796363e-07
result
3.744455144869859e-07
result
4.035770620057436e-07
result
4.327915338150897e-07
result
4.619927929938518e-07
result
4.911249284120276e-07
result
5.201847419916417e-07
result
5.503996116093379e-07
result
5.794586116199012e-07
result
6.089581642311793e-07
result
6.382042143119018e-07
result
6.683280167508085e-07
result
6.9737802748267e-07
result
7.271186002349702e-07
result
7.556829441993807e-07
result
7.856255419657805e-07
result
8.15411605651658e-07
result
8.443283691514097e-07
result
2.777266502172261e-07
result
3.055793212501551e-07
result
3.335892060183647e-07
result
3.612423927349439e-07
result
3.902459786105667e-07
result
4.193512355293786e-07
result
4.484808636177554e-07
result
4.776327212009966e-07
result
5.067673046946948e-07
result
5.36892742520966e-07
result
5.657180543697061e-07
result
5.950169840638969e-07
result
6.241926694319421e-07
result
6.533491089543109e-07
result
6.834155932283588e-07
result
7.12809536427944e-07
result
7.425507837021729e-07
result
7.7081290245844e-07
result
8.003806881263506e-07
result
8.30068611714546e-07
result
1.856381216626805e-08
result
6.19729026735541e-08
result
1.061935477920681e-07
result
1.516392463210746e-07
result
1.994146804958789e-07
result
2.492554898744574e-07
result
3.011602324230504e-07
result
3.551755010360808e-07
result
4.113404007638e-07
result
4.685359588718786e-07
result
1.793233690853999e-08
result
5.989719911834507e-08
result
1.02566055516715e-07
result
1.462783905534477e-07
result
1.916465808935873e-07
result
2.392731091819571e-07
result
2.885684343700138e-07
result
3.394260713475259e-07
result
3.928255416259982e-07
result
4.465382930404902e-07
result
1.740108254108289e-08
result
5.81495167578593e-08
result
9.945455921846227e-08
result
1.416641196179144e-07
result
1.850053138152867e-07
result
2.303657133333219e-07
result
2.77513893364796e-07
result
3.25742031127919e-07
result
3.756833168500391e-07
result
4.273521813802196e-07
result
1.698536620847648e-08
result
5.672128739828331e-08
result
9.685475275287417e-08
result
1.378110609811825e-07
result
1.797015271200544e-07
result
2.228451580880255e-07
result
2.680039386875488e-07
result
3.141755160521496e-07
result
3.616211735041258e-07
result
4.098726233064202e-07
result
1.66092822905038e-08
result
5.545603408743181e-08
result
9.455801526423666e-08
result
1.344228583996409e-07
result
1.750381274255009e-07
result
2.165096850468919e-07
result
2.595651269083029e-07
result
3.038771903080221e-07
result
3.493687486641273e-07
result
3.950322504618395e-07
result
1.631664578300169e-08
result
5.433884998691372e-08
result
9.259873319326923e-08
result
1.310219309324715e-07
result
1.703539586406073e-07
result
2.106286318579695e-07
result
2.520328329891135e-07
result
2.947830224437043e-07
result
3.383014286215256e-07
result
3.821478736679358e-07
result
1.608709998283715e-08
result
5.341770951697021e-08
result
9.035806422757704e-08
result
1.278035369265756e-07
result
1.660959282784017e-07
result
2.051810982088619e-07
result
2.452020521934788e-07
result
2.861177271176468e-07
result
3.282456343447379e-07
result
3.702856259088648e-07
result
1.587193296638801e-08
result
5.228869754011478e-08
result
8.828534681252288e-08
result
1.248149660117187e-07
result
1.621625354649198e-07
result
2.002034094802542e-07
result
2.390008182765282e-07
result
2.784718245400734e-07
result
3.186922601097661e-07
result
3.594716021177752e-07
result
1.57835010759563e-08
result
5.101315471903334e-08
result
8.632151482196938e-08
result
1.220150571967982e-07
result
1.584631584903325e-07
result
1.954484767681088e-07
result
2.330393944002195e-07
result
2.712055680044805e-07
result
3.098280524450303e-07
result
3.490160256639087e-07
result
1.553715379013805e-08
result
4.97697577102255e-08
result
8.436999672478364e-08
result
1.191562676011554e-07
result
1.546027565178945e-07
result
1.905708373053706e-07
result
2.271604288150071e-07
result
2.64259120782274e-07
result
3.017930934776421e-07
result
3.39548769976733e-07
result
1.503236631242858e-08
result
4.842452728086127e-08
result
8.206259235691678e-08
result
1.160884691403204e-07
result
1.507799621930428e-07
result
1.85856007129988e-07
result
2.215057558913892e-07
result
2.576719094593058e-07
result
2.942459312033985e-07
result
3.310045918815418e-07
result
1.429962012279078e-08
result
4.67182368167442e-08
result
7.969262341982657e-08
result
1.13005007094098e-07
result
1.469075058686921e-07
result
1.811934510622383e-07
result
2.16488603512392e-07
result
2.521055888050046e-07
result
2.874238282888066e-07
result
3.229678215576065e-07
result
1.328732600690387e-08
result
4.496486718200485e-08
result
7.727709246971598e-08
result
1.098649766291356e-07
result
1.436083882512428e-07
result
1.774341250500578e-07
result
2.111759571097268e-07
result
2.453958411129836e-07
result
2.799244952100968e-07
result
3.146984390721361e-07
result
1.275936251593992e-08
result
4.375538389122652e-08
result
7.531857847107472e-08
result
1.079184874225351e-07
result
1.399429171577797e-07
result
1.722242099020268e-07
result
2.05224902883271e-07
result
2.386996059982098e-07
result
2.724804540191968e-07
result
3.065662296941118e-07
result
1.247783456537792e-08
result
4.272547063402046e-08
result
7.41297580591821e-08
result
1.050002982668031e-07
result
1.359545554356767e-07
result
1.674872889310879e-07
result
1.996132643810781e-07
result
2.322512680361737e-07
result
2.652312242723854e-07
result
2.983487354178409e-07
result
1.218921249830229e-08
result
4.173930572288716e-08
result
7.192274900738448e-08
result
1.016432469611416e-07
result
1.317839284189088e-07
result
1.625350403326182e-07
result
1.938596722212312e-07
result
2.254045895005567e-07
result
2.575036049449504e-07
result
2.899600576406708e-07
result
1.185530302968904e-08
result
4.075387005577866e-08
result
6.922631430831424e-08
result
9.805984728142574e-08
result
1.273671811758017e-07
result
1.572496119838137e-07
result
1.87377862812323e-07
result
2.179761492896318e-07
result
2.492777277698891e-07
result
2.807507854682591e-07
result
1.17366400739904e-08
result
3.884342640656812e-08
result
6.640039129195834e-08
result
9.424655138195942e-08
result
1.226288388219e-07
result
1.514693274865811e-07
result
1.803584286525981e-07
result
2.100663411918722e-07
result
2.405094305041311e-07
result
2.707679688895355e-07
result
1.076956115882046e-08
result
3.687584147254449e-08
result
6.326303343424175e-08
result
9.001824518552456e-08
result
1.173530029815211e-07
result
1.447872129156702e-07
result
1.727901975657296e-07
result
2.015025906256034e-07
result
2.308002505696119e-07
result
2.601958029438995e-07
result
9.899794696492743e-09
result
3.473855248125664e-08
result
5.98515236341892e-08
result
8.540214835922098e-08
result
1.115575622771147e-07
result
1.375786036259674e-07
result
1.645056789403074e-07
result
1.922992142483881e-07
result
2.200231647462444e-07
result
2.490574567438074e-07
BC correction loop took 50 iterations
(9.0282614405123e-08 7.301194300424084e-08 0)
    20, 0.005058774909940837, 3.909951110398244e-07, 0, 0
(-1.189609834864802e-08 -7.895003736780267e-09 0)
    21, 0.002766302543981366, 7.441472447705659e-08, 0, 0
(-5.905432720916002e-09 -1.001807938021136e-09 0)
    22, 0.00212801794024706, 5.006735519378976e-08, 0, 0
(-9.673341785013112e-09 1.17548148648821e-09 0)
    23, 0.001738175980212233, 4.524331747602885e-08, 0, 0
(-1.86261848377479e-09 2.059131881055338e-09 0)
    24, 0.001462488796651931, 2.24988276982938e-08, 0, 0
(-1.658109096202381e-09 1.800593296372638e-09 0)
    25, 0.001253073299237511, 3.556197292895473e-08, 0, 0
(-4.543826362338605e-09 1.807216279803354e-09 0)
    26, 0.001094700429161106, 2.01159828043751e-08, 0, 0
(-8.590018584390015e-10 1.588564897472747e-09 0)
    27, 0.0009482186786363199, 2.865173819525298e-08, 0, 0
(-2.272901148919786e-09 1.558485104788336e-09 0)
    28, 0.00084062687283118, 1.381992071923347e-08, 0, 0
(-4.985249811552943e-10 1.371828932852703e-09 0)
    29, 0.0007399236882658798, 2.783590162853192e-08, 0, 0
(-2.37330482076749e-09 1.058199226452151e-09 0)
    30, 0.0006579853206617964, 1.280424806948752e-08, 0, 0
(-3.009302553791678e-10 -5.501412384601591e-12 0)
    31, 0.0005839570549832567, 2.516189983490862e-08, 0, 0
(-1.807094857666979e-09 -3.038228469728777e-09 0)
    32, 0.0005230458600062769, 2.240741606607985e-08, 0, 0
(-1.878957860858984e-10 -2.602033271440282e-09 0)
    33, 0.0004695538549570286, 1.970858187484409e-08, 0, 0
(-9.521340406184533e-10 5.423556118694971e-10 0)
    34, 0.0004231138109042098, 8.480656903585798e-09, 0, 0
(-4.265283780697126e-11 -2.245331518120013e-09 0)
    35, 0.0003807051011251709, 1.83405459298123e-08, 0, 0
(-4.771268693985821e-10 4.998341842857023e-10 0)
    36, 0.0003443848584500558, 7.141208828803204e-09, 0, 0
(3.713153673850872e-12 -1.363137052987321e-08 0)
    37, 0.0003110334212427694, 2.618586254425738e-08, 0, 0
(-1.162389629788248e-09 5.35175734231219e-10 0)
    38, 0.0002824739497275533, 6.758368809390886e-09, 0, 0
(2.479703313053795e-11 1.222209486978177e-09 0)
    39, 0.000255376084738379, 9.135494063602173e-09, 0, 0
(2.711100808749111e-10 4.665373747386983e-10 0)
    40, 0.0002318314100977712, 5.188542178484931e-09, 0, 0
(6.821236936630598e-11 8.064295395790106e-10 0)
    41, 0.0002101549245008619, 9.02242231705835e-09, 0, 0
(5.096886419296003e-10 -1.305913362011012e-09 0)
    42, 0.0001910841547780661, 8.350860982367772e-09, 0, 0
(6.642750171752706e-09 -1.017572240938451e-09 0)
    43, 0.0001740964147433686, 2.047071682106839e-08, 0, 0
(2.947582155268137e-10 -4.895984946848488e-09 0)
    44, 0.0001587953522978833, 1.631116063491463e-08, 0, 0
(4.863639207119178e-10 1.510244618030483e-10 0)
    45, 0.0001445559374191745, 2.967056950448459e-09, 0, 0
(2.267828793037185e-10 1.968278552380071e-10 0)
    46, 0.0001314471111319221, 4.163399476089381e-09, 0, 0
(1.334738735388303e-09 2.530609035378699e-10 0)
    47, 0.0001198390771869123, 2.444413455352224e-09, 0, 0
(1.814983133118147e-10 2.369324919446398e-10 0)
    48, 0.0001093347161901011, 3.9355438764859e-09, 0, 0
(1.33948475391924e-09 -1.032047718689789e-09 0)
    49, 9.98639881869311e-05, 4.130532834588024e-09, 0, 0
(6.008322949562697e-09 -8.088285272044609e-10 0)
    50, 9.149625494615038e-05, 1.004551921984707e-08, 0, 0
(2.571249875006193e-10 -5.463885027654666e-10 0)
    51, 8.401229173337169e-05, 4.590196282770872e-09, 0, 0
(8.441369081053397e-10 -1.759630663300897e-09 0)
    52, 7.698779257104182e-05, 3.907692124294714e-09, 0, 0
(1.255074745182142e-09 -1.024716376362629e-09 0)
    53, 7.068899624939529e-05, 2.926220738831552e-09, 0, 0
(3.546402649782559e-09 -1.13730387346468e-09 0)
    54, 6.504216414215009e-05, 5.945638045563073e-09, 0, 0
(7.952794533285025e-10 -1.353840284116229e-09 0)
    55, 5.979838838162839e-05, 3.48985208799351e-09, 0, 0
(2.744296749067857e-09 -1.222928135179624e-09 0)
    56, 5.484775937560926e-05, 4.326222692487967e-09, 0, 0
(5.027296034942454e-10 -1.057225788945652e-09 0)
    57, 5.042714969464388e-05, 2.686556423258099e-09, 0, 0
(1.69666167453362e-09 -1.147082260434072e-09 0)
    58, 4.634004879586678e-05, 2.824631057897152e-09, 0, 0
(1.648421466061469e-09 -1.00412950125954e-09 0)
    59, 4.264453759257646e-05, 2.749535436731059e-09, 0, 0
(4.12632053394275e-10 -9.638194300970289e-10 0)
    60, 3.928233649531641e-05, 2.112366961007676e-09, 0, 0
(1.474669379910496e-09 -1.02490880546157e-09 0)
    61, 3.600689353310857e-05, 2.526825525893479e-09, 0, 0
(1.269920690199284e-09 -8.370704632669049e-10 0)
    62, 3.319767075101455e-05, 2.240152971828679e-09, 0, 0
(1.174731874258041e-09 -8.203045508401646e-10 0)
    63, 3.060988785184005e-05, 1.960977423853569e-09, 0, 0
(8.691848131231643e-10 -8.081569129486672e-10 0)
    64, 2.821454055302547e-05, 1.584443679584126e-09, 0, 0
(8.932802858022927e-10 -8.05010646117459e-10 0)
    65, 2.599182105429602e-05, 1.472922787378818e-09, 0, 0
(8.320689009617813e-10 -1.458580710117799e-09 0)
    66, 2.395695267990021e-05, 2.328595114445842e-09, 0, 0
(6.235479210943108e-10 -3.183156713024022e-10 0)
    67, 2.210442684018666e-05, 1.579486694228225e-09, 0, 0
(8.446181510766811e-10 -5.572346385021948e-10 0)
    68, 2.032589623841742e-05, 1.358900086005573e-09, 0, 0
(7.035210954192639e-10 -5.375306723578906e-10 0)
    69, 1.875440032392128e-05, 1.149315340289426e-09, 0, 0
(6.622282825441485e-10 -5.422672653188474e-10 0)
    70, 1.730816032024314e-05, 1.052834064358115e-09, 0, 0
(5.988012249472229e-10 -5.298052502230409e-10 0)
    71, 1.597894131233461e-05, 9.753894799432033e-10, 0, 0
(5.567591946662518e-10 -5.168356397070847e-10 0)
    72, 1.475567507832047e-05, 9.247594632356612e-10, 0, 0
(5.172247126883581e-10 -9.638836349177877e-10 0)
    73, 1.363014287370175e-05, 1.497974708824047e-09, 0, 0
(3.838509059883179e-10 -2.344357217971293e-10 0)
    74, 1.258431894417176e-05, 9.779422976482094e-10, 0, 0
(5.656585403051378e-10 -3.735688703094103e-10 0)
    75, 1.159804922525428e-05, 8.946768902572404e-10, 0, 0
(4.613527362878152e-10 -3.537779055399444e-10 0)
    76, 1.072936982127685e-05, 7.873375822777681e-10, 0, 0
(4.284303102639708e-10 -3.574275071263669e-10 0)
    77, 9.924920199148688e-06, 7.522824051393646e-10, 0, 0
(3.903096169003326e-10 -6.903720173169476e-10 0)
    78, 9.182534660274033e-06, 1.083569464487402e-09, 0, 0
(2.973896545501375e-10 -2.017812754032701e-10 0)
    79, 8.491970773697369e-06, 6.880375660750515e-10, 0, 0
(3.766448208082696e-10 -2.680907321478599e-10 0)
    80, 7.850150688481424e-06, 6.968041884361691e-10, 0, 0
(3.293348506691485e-10 -2.671900298334272e-10 0)
    81, 7.26989385372192e-06, 6.532180694366685e-10, 0, 0
(3.054339494236625e-10 -5.218852942833113e-10 0)
    82, 6.734125061940647e-06, 8.215571891163014e-10, 0, 0
(2.38559907316292e-10 -1.594847565152032e-10 0)
    83, 6.233441659908704e-06, 5.782765888051729e-10, 0, 0
(2.907325836143582e-10 -2.104086046510175e-10 0)
    84, 5.768640577281203e-06, 5.888297074941341e-10, 0, 0
(2.572480067585687e-10 -4.086864576440614e-10 0)
    85, 5.347667634989604e-06, 6.480506144924414e-10, 0, 0
(2.076542114504262e-10 -1.320503366891172e-10 0)
    86, 4.951598282126344e-06, 5.134103998715745e-10, 0, 0
(2.414955850902107e-10 -1.739034002509754e-10 0)
    87, 4.586186367395443e-06, 5.168251469381206e-10, 0, 0
(2.148575807318017e-10 -3.387469356839789e-10 0)
    88, 4.25362883200617e-06, 5.375170605634624e-10, 0, 0
(1.749615859095996e-10 -1.114404947889169e-10 0)
    89, 3.941852181051733e-06, 4.503227809507318e-10, 0, 0
(3.429389350187441e-10 -1.553664912869307e-10 0)
    90, 3.652772942009712e-06, 5.475804193747458e-10, 0, 0
(1.063364479735649e-10 -2.765045953080483e-10 0)
    91, 3.371459783827316e-06, 4.521946209229123e-10, 0, 0
(1.247411779543721e-10 -8.513566075612306e-11 0)
    92, 3.129692528240866e-06, 4.140482637083742e-10, 0, 0
(1.439781182536754e-10 -1.315188282246044e-10 0)
    93, 2.906587621512291e-06, 4.07034209959735e-10, 0, 0
(1.355373068163776e-10 -2.397284129825424e-10 0)
    94, 2.694660868858759e-06, 3.722626062232804e-10, 0, 0
(1.140177369016143e-10 -8.014522834385492e-11 0)
    95, 2.507051079642156e-06, 3.571519873430841e-10, 0, 0
(2.35741711068588e-10 -1.088931863526919e-10 0)
    96, 2.327847663736347e-06, 3.807958049240946e-10, 0, 0
(8.295608375863417e-11 -1.947611074941043e-10 0)
    97, 2.151677268072782e-06, 3.401446586646685e-10, 0, 0
(7.947880456891159e-11 -7.238000901914219e-11 0)
    98, 1.999298936551978e-06, 3.265923503066936e-10, 0, 0
(9.935505770565046e-11 -9.279150766047589e-11 0)
    99, 1.862504934198825e-06, 3.166150725843835e-10, 0, 0
(1.726755259397978e-10 -1.677299548119444e-10 0)
    100, 1.729906185698089e-06, 2.840178439877294e-10, 0, 0
(5.34768756895989e-11 -5.231969858690817e-11 0)
    101, 1.603111393117699e-06, 2.770924613517255e-10, 0, 0
(7.80135014207715e-11 -1.351509372774552e-10 0)
    102, 1.49046699415066e-06, 2.316884252512698e-10, 0, 0
(1.356520927019053e-10 -5.556122957941666e-11 0)
    103, 1.392328132462319e-06, 2.257366030802448e-10, 0, 0
(5.178894145132711e-11 -1.085568179460238e-10 0)
    104, 1.288025161988489e-06, 2.140097260468496e-10, 0, 0
(5.973485480632626e-11 -8.870940659985294e-11 0)
    105, 1.202290406912253e-06, 2.187180962804358e-10, 0, 0
(8.107849310417998e-11 -5.90189656469931e-11 0)
    106, 1.119710475671341e-06, 2.060868058724755e-10, 0, 0
(7.416174582745662e-11 -9.771885805324112e-11 0)
    107, 1.037557441058621e-06, 1.619938548780357e-10, 0, 0
(9.944330398938665e-11 -3.859167080912682e-11 0)
    108, 9.651845745359851e-07, 1.78391403192097e-10, 0, 0
(3.95131336413456e-11 -7.692642899781924e-11 0)
    109, 8.94464209725039e-07, 1.728479267081063e-10, 0, 0
(5.169866362836923e-11 -6.653685190492137e-11 0)
    110, 8.373523066164128e-07, 1.679655452685828e-10, 0, 0
(8.528591789243023e-11 -6.005623913166809e-11 0)
    111, 7.814977416239111e-07, 1.449574638386805e-10, 0, 0
(3.378108946400824e-11 -5.405679415850058e-11 0)
    112, 7.251945168747055e-07, 1.552115880718003e-10, 0, 0
(4.800576812597367e-11 -5.436885912629975e-11 0)
    113, 6.776762516974328e-07, 1.445042584114872e-10, 0, 0
(4.575384020813938e-11 -5.005639924973034e-11 0)
    114, 6.322216552663149e-07, 1.374380647181808e-10, 0, 0
(7.249490656613867e-11 -4.712227742145476e-11 0)
    115, 5.895905663595635e-07, 1.149536201917193e-10, 0, 0
(2.654455524562738e-11 -4.24771837357694e-11 0)
    116, 5.473651126646006e-07, 1.292313984687774e-10, 0, 0
(3.712267557755845e-11 -4.998069643571903e-11 0)
    117, 5.116739196081428e-07, 1.095346874386373e-10, 0, 0
(5.834890138971847e-11 -2.532279530606575e-11 0)
    118, 4.759910639810554e-07, 1.003240177071825e-10, 0, 0
(2.277697002995278e-11 -4.563954987933377e-11 0)
    119, 4.409687266430699e-07, 1.046256070252706e-10, 0, 0
(2.852435512361531e-11 -2.407632281684243e-11 0)
    120, 4.131435396728214e-07, 1.150628389728819e-10, 0, 0
(3.01590686780192e-11 -4.389260529590866e-11 0)
    The relative residual has converged
    121, 3.860643810511059e-07, 9.352919182344447e-11, 0, 0
Max epsilonEq = 0.04720122425961188
Max sigmaEq (von Mises stress) = 10892590213.75659
ExecutionTime = 0.43 s  ClockTime = 0 s

The momentum equation converged in all time-steps


End

